 ****** HSPICE -- J-2014.09-SP1-2 64-BIT (Jan 29 2015) RHEL64 ******
  Copyright (C) 2014 Synopsys, Inc. All Rights Reserved.
  Unpublished-rights reserved under US copyright laws.
  This program is protected by law and is subject to the
  terms and conditions of the license agreement from Synopsys.
  Use of this program is your acceptance to be bound by the
  license agreement. HSPICE is the trademark of Synopsys, Inc.
  Input File: template_W_akt_isolation_light.sp
  Command line options: -C template_W_akt_isolation_light.sp -o ./
 Init: read install configuration file: /usr/synopsys/J-2014.09-SP1-2/hspice/meta.cfg

 **warning** It is recommended that you set start explicitly:
             .TRAN tstep tstop START=val


  **info** (template_W_akt_isolation_light.sp:11) DC voltage reset to initial transient source value              in source        0:vs1                 new dc=  0.0000D+00


 *****************************************************************
 ******  option summary
 ******
 runlvl  = 3         bypass  = 2

 **info** rebuilding matrix with pivot option

 **info** dc convergence successful at Newton-Raphson method
1****** HSPICE -- J-2014.09-SP1-2 64-BIT (Jan 29 2015) RHEL64 ******
 ******
 ******************** stl ver 2.3 t element basic model ********************

 ****** operating point information tnom=  25.000 temp=  25.000 ******
 ****** operating point status is voltage   simulation time is     0.
    node    =voltage      node    =voltage      node    =voltage      node    =voltage      node    =voltage

 +0:101     =   0.      0:102     =   0.      0:103     =   0.      0:104     =   0.      0:1001    =   0.
 +0:1002    =   0.      0:optpt1  =   0.      0:optpt2  =   0.      0:optpt3  =   0.      0:vspt1   =   0.
 +0:vspt2   =   0.      0:vspt3   =   0.

 ******
 ******************** stl ver 2.3 t element basic model ********************

 ****** transient analysis tnom=  25.000 temp=  25.000 ******
x

        time    voltage      voltage      voltage      voltage      voltage      voltage
                  optpt1       optpt2       optpt3        vspt1        vspt2        vspt3
    0.            0.           0.           0.           0.           0.           0.
    5.00000p      0.           0.           0.           0.           0.           0.
   10.00000p      0.           0.           0.           0.           0.           0.
   15.00000p      0.           0.           0.           0.           0.           0.
   20.00000p      0.           0.           0.           0.           0.           0.
   25.00000p      0.           0.           0.           0.           0.           0.
   30.00000p      0.           0.           0.           0.           0.           0.
   35.00000p      0.           0.           0.           0.           0.           0.
   40.00000p      0.           0.           0.           0.           0.           0.
   45.00000p      0.           0.           0.           0.           0.           0.
   50.00000p      0.           0.           0.           0.           0.           0.
   55.00000p      0.           0.           0.           0.           0.           0.
   60.00000p      0.           0.           0.           0.           0.           0.
   65.00000p      0.           0.           0.           0.           0.           0.
   70.00000p      0.           0.           0.           0.           0.           0.
   75.00000p      0.           0.           0.           0.           0.           0.
   80.00000p      0.           0.           0.           0.           0.           0.
   85.00000p      0.           0.           0.           0.           0.           0.
   90.00000p      0.           0.           0.           0.           0.           0.
   95.00000p      0.           0.           0.           0.           0.           0.
  100.00000p      0.           0.           0.           0.           0.           0.
  105.00000p      0.           0.           0.           0.           0.           0.
  110.00000p      0.           0.           0.           0.           0.           0.
  115.00000p      0.           0.           0.           0.           0.           0.
  120.00000p      0.           0.           0.           0.           0.           0.
  125.00000p      0.           0.           0.           0.           0.           0.
  130.00000p      0.           0.           0.           0.           0.           0.
  135.00000p      0.           0.           0.           0.           0.           0.
  140.00000p      0.           0.           0.           0.           0.           0.
  145.00000p      0.           0.           0.           0.           0.           0.
  150.00000p      0.           0.           0.           0.           0.           0.
  155.00000p      0.           0.           0.           0.           0.           0.
  160.00000p      0.           0.           0.           0.           0.           0.
  165.00000p      0.           0.           0.           0.           0.           0.
  170.00000p      0.           0.           0.           0.           0.           0.
  175.00000p      0.           0.           0.           0.           0.           0.
  180.00000p      0.           0.           0.           0.           0.           0.
  185.00000p      0.           0.           0.           0.           0.           0.
  190.00000p      0.           0.           0.           0.           0.           0.
  195.00000p      0.           0.           0.           0.           0.           0.
  200.00000p      0.           0.           0.           0.           0.           0.
  205.00000p      0.           0.           0.           0.           0.           0.
  210.00000p      0.           0.           0.           0.           0.           0.
  215.00000p      0.           0.           0.           0.           0.           0.
  220.00000p      0.           0.           0.           0.           0.           0.
  225.00000p      0.           0.           0.           0.           0.           0.
  230.00000p      0.           0.           0.           0.           0.           0.
  235.00000p      0.           0.           0.           0.           0.           0.
  240.00000p      0.           0.           0.           0.           0.           0.
  245.00000p      0.           0.           0.           0.           0.           0.
  250.00000p      0.           0.           0.           0.           0.           0.
  255.00000p      0.           0.           0.           0.           0.           0.
  260.00000p      0.           0.           0.           0.           0.           0.
  265.00000p      0.           0.           0.           0.           0.           0.
  270.00000p      0.           0.           0.           0.           0.           0.
  275.00000p      0.           0.           0.           0.           0.           0.
  280.00000p      0.           0.           0.           0.           0.           0.
  285.00000p      0.           0.           0.           0.           0.           0.
  290.00000p      0.           0.           0.           0.           0.           0.
  295.00000p      0.           0.           0.           0.           0.           0.
  300.00000p      0.           0.           0.           0.           0.           0.
  305.00000p      0.           0.           0.           0.           0.           0.
  310.00000p      0.           0.           0.           0.           0.           0.
  315.00000p      0.           0.           0.           0.           0.           0.
  320.00000p      0.           0.           0.           0.           0.           0.
  325.00000p      0.           0.           0.           0.           0.           0.
  330.00000p      0.           0.           0.           0.           0.           0.
  335.00000p      0.           0.           0.           0.           0.           0.
  340.00000p      0.           0.           0.           0.           0.           0.
  345.00000p      0.           0.           0.           0.           0.           0.
  350.00000p      0.           0.           0.           0.           0.           0.
  355.00000p      0.           0.           0.           0.           0.           0.
  360.00000p      0.           0.           0.           0.           0.           0.
  365.00000p      0.           0.           0.           0.           0.           0.
  370.00000p      0.           0.           0.           0.           0.           0.
  375.00000p      0.           0.           0.           0.           0.           0.
  380.00000p      0.           0.           0.           0.           0.           0.
  385.00000p      0.           0.           0.           0.           0.           0.
  390.00000p      0.           0.           0.           0.           0.           0.
  395.00000p      0.           0.           0.           0.           0.           0.
  400.00000p      0.           0.           0.           0.           0.           0.
  405.00000p      0.           0.           0.           0.           0.           0.
  410.00000p      0.           0.           0.           0.           0.           0.
  415.00000p      0.           0.           0.           0.           0.           0.
  420.00000p      0.           0.           0.           0.           0.           0.
  425.00000p      0.           0.           0.           0.           0.           0.
  430.00000p      0.           0.           0.           0.           0.           0.
  435.00000p      0.           0.           0.           0.           0.           0.
  440.00000p      0.           0.           0.           0.           0.           0.
  445.00000p      0.           0.           0.           0.           0.           0.
  450.00000p      0.           0.           0.           0.           0.           0.
  455.00000p      0.           0.           0.           0.           0.           0.
  460.00000p      0.           0.           0.           0.           0.           0.
  465.00000p      0.           0.           0.           0.           0.           0.
  470.00000p      0.           0.           0.           0.           0.           0.
  475.00000p      0.           0.           0.           0.           0.           0.
  480.00000p      0.           0.           0.           0.           0.           0.
  485.00000p      0.           0.           0.           0.           0.           0.
  490.00000p      0.           0.           0.           0.           0.           0.
  495.00000p      0.           0.           0.           0.           0.           0.
  500.00000p      0.           0.           0.           0.           0.           0.
  505.00000p      0.           0.           0.           0.           0.           0.
  510.00000p      0.           0.           0.           0.           0.           0.
  515.00000p      0.           0.           0.           0.           0.           0.
  520.00000p      0.           0.           0.           0.           0.           0.
  525.00000p      0.           0.           0.           0.           0.           0.
  530.00000p      0.           0.           0.           0.           0.           0.
  535.00000p      0.           0.           0.           0.           0.           0.
  540.00000p      0.           0.           0.           0.           0.           0.
  545.00000p      0.           0.           0.           0.           0.           0.
  550.00000p      0.           0.           0.           0.           0.           0.
  555.00000p      0.           0.           0.           0.           0.           0.
  560.00000p      0.           0.           0.           0.           0.           0.
  565.00000p      0.           0.           0.           0.           0.           0.
  570.00000p      0.           0.           0.           0.           0.           0.
  575.00000p      0.           0.           0.           0.           0.           0.
  580.00000p      0.           0.           0.           0.           0.           0.
  585.00000p      0.           0.           0.           0.           0.           0.
  590.00000p      0.           0.           0.           0.           0.           0.
  595.00000p      0.           0.           0.           0.           0.           0.
  600.00000p      0.           0.           0.           0.           0.           0.
  605.00000p      0.           0.           0.           0.           0.           0.
  610.00000p      0.           0.           0.           0.           0.           0.
  615.00000p      0.           0.           0.           0.           0.           0.
  620.00000p      0.           0.           0.           0.           0.           0.
  625.00000p      0.           0.           0.           0.           0.           0.
  630.00000p      0.           0.           0.           0.           0.           0.
  635.00000p      0.           0.           0.           0.           0.           0.
  640.00000p      0.           0.           0.           0.           0.           0.
  645.00000p      0.           0.           0.           0.           0.           0.
  650.00000p      0.           0.           0.           0.           0.           0.
  655.00000p      0.           0.           0.           0.           0.           0.
  660.00000p      0.           0.           0.           0.           0.           0.
  665.00000p      0.           0.           0.           0.           0.           0.
  670.00000p      0.           0.           0.           0.           0.           0.
  675.00000p      0.           0.           0.           0.           0.           0.
  680.00000p      0.           0.           0.           0.           0.           0.
  685.00000p      0.           0.           0.           0.           0.           0.
  690.00000p      0.           0.           0.           0.           0.           0.
  695.00000p      0.           0.           0.           0.           0.           0.
  700.00000p      0.           0.           0.           0.           0.           0.
  705.00000p      0.           0.           0.           0.           0.           0.
  710.00000p      0.           0.           0.           0.           0.           0.
  715.00000p      0.           0.           0.           0.           0.           0.
  720.00000p      0.           0.           0.           0.           0.           0.
  725.00000p      0.           0.           0.           0.           0.           0.
  730.00000p      0.           0.           0.           0.           0.           0.
  735.00000p      0.           0.           0.           0.           0.           0.
  740.00000p      0.           0.           0.           0.           0.           0.
  745.00000p      0.           0.           0.           0.           0.           0.
  750.00000p      0.           0.           0.           0.           0.           0.
  755.00000p      0.           0.           0.           0.           0.           0.
  760.00000p      0.           0.           0.           0.           0.           0.
  765.00000p      0.           0.           0.           0.           0.           0.
  770.00000p      0.           0.           0.           0.           0.           0.
  775.00000p      0.           0.           0.           0.           0.           0.
  780.00000p      0.           0.           0.           0.           0.           0.
  785.00000p      0.           0.           0.           0.           0.           0.
  790.00000p      0.           0.           0.           0.           0.           0.
  795.00000p      0.           0.           0.           0.           0.           0.
  800.00000p      0.           0.           0.           0.           0.           0.
  805.00000p      0.           0.           0.           0.           0.           0.
  810.00000p      0.           0.           0.           0.           0.           0.
  815.00000p      0.           0.           0.           0.           0.           0.
  820.00000p      0.           0.           0.           0.           0.           0.
  825.00000p      0.           0.           0.           0.           0.           0.
  830.00000p      0.           0.           0.           0.           0.           0.
  835.00000p      0.           0.           0.           0.           0.           0.
  840.00000p      0.           0.           0.           0.           0.           0.
  845.00000p      0.           0.           0.           0.           0.           0.
  850.00000p      0.           0.           0.           0.           0.           0.
  855.00000p      0.           0.           0.           0.           0.           0.
  860.00000p      0.           0.           0.           0.           0.           0.
  865.00000p      0.           0.           0.           0.           0.           0.
  870.00000p      0.           0.           0.           0.           0.           0.
  875.00000p      0.           0.           0.           0.           0.           0.
  880.00000p      0.           0.           0.           0.           0.           0.
  885.00000p      0.           0.           0.           0.           0.           0.
  890.00000p      0.           0.           0.           0.           0.           0.
  895.00000p      0.           0.           0.           0.           0.           0.
  900.00000p      0.           0.           0.           0.           0.           0.
  905.00000p      0.           0.           0.           0.           0.           0.
  910.00000p      0.           0.           0.           0.           0.           0.
  915.00000p      0.           0.           0.           0.           0.           0.
  920.00000p      0.           0.           0.           0.           0.           0.
  925.00000p      0.           0.           0.           0.           0.           0.
  930.00000p      0.           0.           0.           0.           0.           0.
  935.00000p      0.           0.           0.           0.           0.           0.
  940.00000p      0.           0.           0.           0.           0.           0.
  945.00000p      0.           0.           0.           0.           0.           0.
  950.00000p      0.           0.           0.           0.           0.           0.
  955.00000p      0.           0.           0.           0.           0.           0.
  960.00000p      0.           0.           0.           0.           0.           0.
  965.00000p      0.           0.           0.           0.           0.           0.
  970.00000p      0.           0.           0.           0.           0.           0.
  975.00000p      0.           0.           0.           0.           0.           0.
  980.00000p      0.           0.           0.           0.           0.           0.
  985.00000p      0.           0.           0.           0.           0.           0.
  990.00000p      0.           0.           0.           0.           0.           0.
  995.00000p      0.           0.           0.           0.           0.           0.
    1.00000n      0.           0.           0.           0.           0.           0.
    1.00500n      0.           0.           0.           0.           0.           0.
    1.01000n      0.           0.           0.           0.           0.           0.
    1.01500n      0.           0.           0.           0.           0.           0.
    1.02000n      0.           0.           0.           0.           0.           0.
    1.02500n      0.           0.           0.           0.           0.           0.
    1.03000n      0.           0.           0.           0.           0.           0.
    1.03500n      0.           0.           0.           0.           0.           0.
    1.04000n      0.           0.           0.           0.           0.           0.
    1.04500n      0.           0.           0.           0.           0.           0.
    1.05000n      0.           0.           0.           0.           0.           0.
    1.05500n      0.           0.           0.           0.           0.           0.
    1.06000n      0.           0.           0.           0.           0.           0.
    1.06500n      0.           0.           0.           0.           0.           0.
    1.07000n      0.           0.           0.           0.           0.           0.
    1.07500n      0.           0.           0.           0.           0.           0.
    1.08000n      0.           0.           0.           0.           0.           0.
    1.08500n      0.           0.           0.           0.           0.           0.
    1.09000n      0.           0.           0.           0.           0.           0.
    1.09500n      0.           0.           0.           0.           0.           0.
    1.10000n      0.           0.           0.           0.           0.           0.
    1.10500n      0.           0.           0.           0.           0.           0.
    1.11000n      0.           0.           0.           0.           0.           0.
    1.11500n      0.           0.           0.           0.           0.           0.
    1.12000n      0.           0.           0.           0.           0.           0.
    1.12500n      0.           0.           0.           0.           0.           0.
    1.13000n      0.           0.           0.           0.           0.           0.
    1.13500n      0.           0.           0.           0.           0.           0.
    1.14000n      0.           0.           0.           0.           0.           0.
    1.14500n      0.           0.           0.           0.           0.           0.
    1.15000n      0.           0.           0.           0.           0.           0.
    1.15500n      0.           0.           0.           0.           0.           0.
    1.16000n      0.           0.           0.           0.           0.           0.
    1.16500n      0.           0.           0.           0.           0.           0.
    1.17000n      0.           0.           0.           0.           0.           0.
    1.17500n      0.           0.           0.           0.           0.           0.
    1.18000n      0.           0.           0.           0.           0.           0.
    1.18500n      0.           0.           0.           0.           0.           0.
    1.19000n      0.           0.           0.           0.           0.           0.
    1.19500n      0.           0.           0.           0.           0.           0.
    1.20000n      0.           0.           0.           0.           0.           0.
    1.20500n      0.           0.           0.           0.           0.           0.
    1.21000n      0.           0.           0.           0.           0.           0.
    1.21500n      0.           0.           0.           0.           0.           0.
    1.22000n      0.           0.           0.           0.           0.           0.
    1.22500n      0.           0.           0.           0.           0.           0.
    1.23000n      0.           0.           0.           0.           0.           0.
    1.23500n      0.           0.           0.           0.           0.           0.
    1.24000n      0.           0.           0.           0.           0.           0.
    1.24500n      0.           0.           0.           0.           0.           0.
    1.25000n      0.           0.           0.           0.           0.           0.
    1.25500n      0.           0.           0.           0.           0.           0.
    1.26000n      0.           0.           0.           0.           0.           0.
    1.26500n      0.           0.           0.           0.           0.           0.
    1.27000n      0.           0.           0.           0.           0.           0.
    1.27500n      0.           0.           0.           0.           0.           0.
    1.28000n      0.           0.           0.           0.           0.           0.
    1.28500n      0.           0.           0.           0.           0.           0.
    1.29000n      0.           0.           0.           0.           0.           0.
    1.29500n      0.           0.           0.           0.           0.           0.
    1.30000n      0.           0.           0.           0.           0.           0.
    1.30500n      0.           0.           0.           0.           0.           0.
    1.31000n      0.           0.           0.           0.           0.           0.
    1.31500n      0.           0.           0.           0.           0.           0.
    1.32000n      0.           0.           0.           0.           0.           0.
    1.32500n      0.           0.           0.           0.           0.           0.
    1.33000n      0.           0.           0.           0.           0.           0.
    1.33500n      0.           0.           0.           0.           0.           0.
    1.34000n      0.           0.           0.           0.           0.           0.
    1.34500n      0.           0.           0.           0.           0.           0.
    1.35000n      0.           0.           0.           0.           0.           0.
    1.35500n      0.           0.           0.           0.           0.           0.
    1.36000n      0.           0.           0.           0.           0.           0.
    1.36500n      0.           0.           0.           0.           0.           0.
    1.37000n      0.           0.           0.           0.           0.           0.
    1.37500n      0.           0.           0.           0.           0.           0.
    1.38000n      0.           0.           0.           0.           0.           0.
    1.38500n      0.           0.           0.           0.           0.           0.
    1.39000n      0.           0.           0.           0.           0.           0.
    1.39500n      0.           0.           0.           0.           0.           0.
    1.40000n      0.           0.           0.           0.           0.           0.
    1.40500n      0.           0.           0.           0.           0.           0.
    1.41000n      0.           0.           0.           0.           0.           0.
    1.41500n      0.           0.           0.           0.           0.           0.
    1.42000n      0.           0.           0.           0.           0.           0.
    1.42500n      0.           0.           0.           0.           0.           0.
    1.43000n      0.           0.           0.           0.           0.           0.
    1.43500n      0.           0.           0.           0.           0.           0.
    1.44000n      0.           0.           0.           0.           0.           0.
    1.44500n      0.           0.           0.           0.           0.           0.
    1.45000n      0.           0.           0.           0.           0.           0.
    1.45500n      0.           0.           0.           0.           0.           0.
    1.46000n      0.           0.           0.           0.           0.           0.
    1.46500n      0.           0.           0.           0.           0.           0.
    1.47000n      0.           0.           0.           0.           0.           0.
    1.47500n      0.           0.           0.           0.           0.           0.
    1.48000n      0.           0.           0.           0.           0.           0.
    1.48500n      0.           0.           0.           0.           0.           0.
    1.49000n      0.           0.           0.           0.           0.           0.
    1.49500n      0.           0.           0.           0.           0.           0.
    1.50000n      0.           0.           0.           0.           0.           0.
    1.50500n      0.           0.           0.           0.           0.           0.
    1.51000n      0.           0.           0.           0.           0.           0.
    1.51500n      0.           0.           0.           0.           0.           0.
    1.52000n      0.           0.           0.           0.           0.           0.
    1.52500n      0.           0.           0.           0.           0.           0.
    1.53000n      0.           0.           0.           0.           0.           0.
    1.53500n      0.           0.           0.           0.           0.           0.
    1.54000n      0.           0.           0.           0.           0.           0.
    1.54500n      0.           0.           0.           0.           0.           0.
    1.55000n      0.           0.           0.           0.           0.           0.
    1.55500n      0.           0.           0.           0.           0.           0.
    1.56000n      0.           0.           0.           0.           0.           0.
    1.56500n      0.           0.           0.           0.           0.           0.
    1.57000n      0.           0.           0.           0.           0.           0.
    1.57500n      0.           0.           0.           0.           0.           0.
    1.58000n      0.           0.           0.           0.           0.           0.
    1.58500n      0.           0.           0.           0.           0.           0.
    1.59000n      0.           0.           0.           0.           0.           0.
    1.59500n      0.           0.           0.           0.           0.           0.
    1.60000n      0.           0.           0.           0.           0.           0.
    1.60500n      0.           0.           0.           0.           0.           0.
    1.61000n      0.           0.           0.           0.           0.           0.
    1.61500n      0.           0.           0.           0.           0.           0.
    1.62000n      0.           0.           0.           0.           0.           0.
    1.62500n      0.           0.           0.           0.           0.           0.
    1.63000n      0.           0.           0.           0.           0.           0.
    1.63500n      0.           0.           0.           0.           0.           0.
    1.64000n      0.           0.           0.           0.           0.           0.
    1.64500n      0.           0.           0.           0.           0.           0.
    1.65000n      0.           0.           0.           0.           0.           0.
    1.65500n      0.           0.           0.           0.           0.           0.
    1.66000n      0.           0.           0.           0.           0.           0.
    1.66500n      0.           0.           0.           0.           0.           0.
    1.67000n      0.           0.           0.           0.           0.           0.
    1.67500n      0.           0.           0.           0.           0.           0.
    1.68000n      0.           0.           0.           0.           0.           0.
    1.68500n      0.           0.           0.           0.           0.           0.
    1.69000n      0.           0.           0.           0.           0.           0.
    1.69500n      0.           0.           0.           0.           0.           0.
    1.70000n      0.           0.           0.           0.           0.           0.
    1.70500n      0.           0.           0.           0.           0.           0.
    1.71000n      0.           0.           0.           0.           0.           0.
    1.71500n      0.           0.           0.           0.           0.           0.
    1.72000n      0.           0.           0.           0.           0.           0.
    1.72500n      0.           0.           0.           0.           0.           0.
    1.73000n      0.           0.           0.           0.           0.           0.
    1.73500n      0.           0.           0.           0.           0.           0.
    1.74000n      0.           0.           0.           0.           0.           0.
    1.74500n      0.           0.           0.           0.           0.           0.
    1.75000n      0.           0.           0.           0.           0.           0.
    1.75500n      0.           0.           0.           0.           0.           0.
    1.76000n      0.           0.           0.           0.           0.           0.
    1.76500n      0.           0.           0.           0.           0.           0.
    1.77000n      0.           0.           0.           0.           0.           0.
    1.77500n      0.           0.           0.           0.           0.           0.
    1.78000n      0.           0.           0.           0.           0.           0.
    1.78500n      0.           0.           0.           0.           0.           0.
    1.79000n      0.           0.           0.           0.           0.           0.
    1.79500n      0.           0.           0.           0.           0.           0.
    1.80000n      0.           0.           0.           0.           0.           0.
    1.80500n      0.           0.           0.           0.           0.           0.
    1.81000n      0.           0.           0.           0.           0.           0.
    1.81500n      0.           0.           0.           0.           0.           0.
    1.82000n      0.           0.           0.           0.           0.           0.
    1.82500n      0.           0.           0.           0.           0.           0.
    1.83000n      0.           0.           0.           0.           0.           0.
    1.83500n      0.           0.           0.           0.           0.           0.
    1.84000n      0.           0.           0.           0.           0.           0.
    1.84500n      0.           0.           0.           0.           0.           0.
    1.85000n      0.           0.           0.           0.           0.           0.
    1.85500n      0.           0.           0.           0.           0.           0.
    1.86000n      0.           0.           0.           0.           0.           0.
    1.86500n      0.           0.           0.           0.           0.           0.
    1.87000n      0.           0.           0.           0.           0.           0.
    1.87500n      0.           0.           0.           0.           0.           0.
    1.88000n      0.           0.           0.           0.           0.           0.
    1.88500n      0.           0.           0.           0.           0.           0.
    1.89000n      0.           0.           0.           0.           0.           0.
    1.89500n      0.           0.           0.           0.           0.           0.
    1.90000n      0.           0.           0.           0.           0.           0.
    1.90500n      0.           0.           0.           0.           0.           0.
    1.91000n      0.           0.           0.           0.           0.           0.
    1.91500n      0.           0.           0.           0.           0.           0.
    1.92000n      0.           0.           0.           0.           0.           0.
    1.92500n      0.           0.           0.           0.           0.           0.
    1.93000n      0.           0.           0.           0.           0.           0.
    1.93500n      0.           0.           0.           0.           0.           0.
    1.94000n      0.           0.           0.           0.           0.           0.
    1.94500n      0.           0.           0.           0.           0.           0.
    1.95000n      0.           0.           0.           0.           0.           0.
    1.95500n      0.           0.           0.           0.           0.           0.
    1.96000n      0.           0.           0.           0.           0.           0.
    1.96500n      0.           0.           0.           0.           0.           0.
    1.97000n      0.           0.           0.           0.           0.           0.
    1.97500n      0.           0.           0.           0.           0.           0.
    1.98000n      0.           0.           0.           0.           0.           0.
    1.98500n      0.           0.           0.           0.           0.           0.
    1.99000n      0.           0.           0.           0.           0.           0.
    1.99500n      0.           0.           0.           0.           0.           0.
    2.00000n      0.           0.           0.           0.           0.           0.
    2.00500n      0.           0.           0.           0.           0.           0.
    2.01000n      0.           0.           0.           0.           0.           0.
    2.01500n      0.           0.           0.           0.           0.           0.
    2.02000n      0.           0.           0.           0.           0.           0.
    2.02500n      0.           0.           0.           0.           0.           0.
    2.03000n      0.           0.           0.           0.           0.           0.
    2.03500n      0.           0.           0.           0.           0.           0.
    2.04000n      0.           0.           0.           0.           0.           0.
    2.04500n      0.           0.           0.           0.           0.           0.
    2.05000n      0.           0.           0.           0.           0.           0.
    2.05500n      0.           0.           0.           0.           0.           0.
    2.06000n      0.           0.           0.           0.           0.           0.
    2.06500n      0.           0.           0.           0.           0.           0.
    2.07000n      0.           0.           0.           0.           0.           0.
    2.07500n      0.           0.           0.           0.           0.           0.
    2.08000n      0.           0.           0.           0.           0.           0.
    2.08500n      0.           0.           0.           0.           0.           0.
    2.09000n      0.           0.           0.           0.           0.           0.
    2.09500n      0.           0.           0.           0.           0.           0.
    2.10000n      0.           0.           0.           0.           0.           0.
    2.10500n      0.           0.           0.           0.           0.           0.
    2.11000n      0.           0.           0.           0.           0.           0.
    2.11500n      0.           0.           0.           0.           0.           0.
    2.12000n      0.           0.           0.           0.           0.           0.
    2.12500n      0.           0.           0.           0.           0.           0.
    2.13000n      0.           0.           0.           0.           0.           0.
    2.13500n      0.           0.           0.           0.           0.           0.
    2.14000n      0.           0.           0.           0.           0.           0.
    2.14500n      0.           0.           0.           0.           0.           0.
    2.15000n      0.           0.           0.           0.           0.           0.
    2.15500n      0.           0.           0.           0.           0.           0.
    2.16000n      0.           0.           0.           0.           0.           0.
    2.16500n      0.           0.           0.           0.           0.           0.
    2.17000n      0.           0.           0.           0.           0.           0.
    2.17500n      0.           0.           0.           0.           0.           0.
    2.18000n      0.           0.           0.           0.           0.           0.
    2.18500n      0.           0.           0.           0.           0.           0.
    2.19000n      0.           0.           0.           0.           0.           0.
    2.19500n      0.           0.           0.           0.           0.           0.
    2.20000n      0.           0.           0.           0.           0.           0.
    2.20500n      0.           0.           0.           0.           0.           0.
    2.21000n      0.           0.           0.           0.           0.           0.
    2.21500n      0.           0.           0.           0.           0.           0.
    2.22000n      0.           0.           0.           0.           0.           0.
    2.22500n      0.           0.           0.           0.           0.           0.
    2.23000n      0.           0.           0.           0.           0.           0.
    2.23500n      0.           0.           0.           0.           0.           0.
    2.24000n      0.           0.           0.           0.           0.           0.
    2.24500n      0.           0.           0.           0.           0.           0.
    2.25000n      0.           0.           0.           0.           0.           0.
    2.25500n      0.           0.           0.           0.           0.           0.
    2.26000n      0.           0.           0.           0.           0.           0.
    2.26500n      0.           0.           0.           0.           0.           0.
    2.27000n      0.           0.           0.           0.           0.           0.
    2.27500n      0.           0.           0.           0.           0.           0.
    2.28000n      0.           0.           0.           0.           0.           0.
    2.28500n      0.           0.           0.           0.           0.           0.
    2.29000n      0.           0.           0.           0.           0.           0.
    2.29500n      0.           0.           0.           0.           0.           0.
    2.30000n      0.           0.           0.           0.           0.           0.
    2.30500n      0.           0.           0.           0.           0.           0.
    2.31000n      0.           0.           0.           0.           0.           0.
    2.31500n      0.           0.           0.           0.           0.           0.
    2.32000n      0.           0.           0.           0.           0.           0.
    2.32500n      0.           0.           0.           0.           0.           0.
    2.33000n      0.           0.           0.           0.           0.           0.
    2.33500n      0.           0.           0.           0.           0.           0.
    2.34000n      0.           0.           0.           0.           0.           0.
    2.34500n      0.           0.           0.           0.           0.           0.
    2.35000n      0.           0.           0.           0.           0.           0.
    2.35500n      0.           0.           0.           0.           0.           0.
    2.36000n      0.           0.           0.           0.           0.           0.
    2.36500n      0.           0.           0.           0.           0.           0.
    2.37000n      0.           0.           0.           0.           0.           0.
    2.37500n      0.           0.           0.           0.           0.           0.
    2.38000n      0.           0.           0.           0.           0.           0.
    2.38500n      0.           0.           0.           0.           0.           0.
    2.39000n      0.           0.           0.           0.           0.           0.
    2.39500n      0.           0.           0.           0.           0.           0.
    2.40000n      0.           0.           0.           0.           0.           0.
    2.40500n      0.           0.           0.           0.           0.           0.
    2.41000n      0.           0.           0.           0.           0.           0.
    2.41500n      0.           0.           0.           0.           0.           0.
    2.42000n      0.           0.           0.           0.           0.           0.
    2.42500n      0.           0.           0.           0.           0.           0.
    2.43000n      0.           0.           0.           0.           0.           0.
    2.43500n      0.           0.           0.           0.           0.           0.
    2.44000n      0.           0.           0.           0.           0.           0.
    2.44500n      0.           0.           0.           0.           0.           0.
    2.45000n      0.           0.           0.           0.           0.           0.
    2.45500n      0.           0.           0.           0.           0.           0.
    2.46000n      0.           0.           0.           0.           0.           0.
    2.46500n      0.           0.           0.           0.           0.           0.
    2.47000n      0.           0.           0.           0.           0.           0.
    2.47500n      0.           0.           0.           0.           0.           0.
    2.48000n      0.           0.           0.           0.           0.           0.
    2.48500n      0.           0.           0.           0.           0.           0.
    2.49000n      0.           0.           0.           0.           0.           0.
    2.49500n      0.           0.           0.           0.           0.           0.
    2.50000n      0.           0.           0.           0.           0.           0.
    2.50500n      0.           0.           0.           0.           0.           0.
    2.51000n      0.           0.           0.           0.           0.           0.
    2.51500n      0.           0.           0.           0.           0.           0.
    2.52000n      0.           0.           0.           0.           0.           0.
    2.52500n      0.           0.           0.           0.           0.           0.
    2.53000n      0.           0.           0.           0.           0.           0.
    2.53500n      0.           0.           0.           0.           0.           0.
    2.54000n      0.           0.           0.           0.           0.           0.
    2.54500n      0.           0.           0.           0.           0.           0.
    2.55000n      0.           0.           0.           0.           0.           0.
    2.55500n      0.           0.           0.           0.           0.           0.
    2.56000n      0.           0.           0.           0.           0.           0.
    2.56500n      0.           0.           0.           0.           0.           0.
    2.57000n      0.           0.           0.           0.           0.           0.
    2.57500n      0.           0.           0.           0.           0.           0.
    2.58000n      0.           0.           0.           0.           0.           0.
    2.58500n      0.           0.           0.           0.           0.           0.
    2.59000n      0.           0.           0.           0.           0.           0.
    2.59500n      0.           0.           0.           0.           0.           0.
    2.60000n      0.           0.           0.           0.           0.           0.
    2.60500n      0.           0.           0.           0.           0.           0.
    2.61000n      0.           0.           0.           0.           0.           0.
    2.61500n      0.           0.           0.           0.           0.           0.
    2.62000n      0.           0.           0.           0.           0.           0.
    2.62500n      0.           0.           0.           0.           0.           0.
    2.63000n      0.           0.           0.           0.           0.           0.
    2.63500n      0.           0.           0.           0.           0.           0.
    2.64000n      0.           0.           0.           0.           0.           0.
    2.64500n      0.           0.           0.           0.           0.           0.
    2.65000n      0.           0.           0.           0.           0.           0.
    2.65500n      0.           0.           0.           0.           0.           0.
    2.66000n      0.           0.           0.           0.           0.           0.
    2.66500n      0.           0.           0.           0.           0.           0.
    2.67000n      0.           0.           0.           0.           0.           0.
    2.67500n      0.           0.           0.           0.           0.           0.
    2.68000n      0.           0.           0.           0.           0.           0.
    2.68500n      0.           0.           0.           0.           0.           0.
    2.69000n      0.           0.           0.           0.           0.           0.
    2.69500n      0.           0.           0.           0.           0.           0.
    2.70000n      0.           0.           0.           0.           0.           0.
    2.70500n      0.           0.           0.           0.           0.           0.
    2.71000n      0.           0.           0.           0.           0.           0.
    2.71500n      0.           0.           0.           0.           0.           0.
    2.72000n      0.           0.           0.           0.           0.           0.
    2.72500n      0.           0.           0.           0.           0.           0.
    2.73000n      0.           0.           0.           0.           0.           0.
    2.73500n      0.           0.           0.           0.           0.           0.
    2.74000n      0.           0.           0.           0.           0.           0.
    2.74500n      0.           0.           0.           0.           0.           0.
    2.75000n      0.           0.           0.           0.           0.           0.
    2.75500n      0.           0.           0.           0.           0.           0.
    2.76000n      0.           0.           0.           0.           0.           0.
    2.76500n      0.           0.           0.           0.           0.           0.
    2.77000n      0.           0.           0.           0.           0.           0.
    2.77500n      0.           0.           0.           0.           0.           0.
    2.78000n      0.           0.           0.           0.           0.           0.
    2.78500n      0.           0.           0.           0.           0.           0.
    2.79000n      0.           0.           0.           0.           0.           0.
    2.79500n      0.           0.           0.           0.           0.           0.
    2.80000n      0.           0.           0.           0.           0.           0.
    2.80500n      0.           0.           0.           0.           0.           0.
    2.81000n      0.           0.           0.           0.           0.           0.
    2.81500n      0.           0.           0.           0.           0.           0.
    2.82000n      0.           0.           0.           0.           0.           0.
    2.82500n      0.           0.           0.           0.           0.           0.
    2.83000n      0.           0.           0.           0.           0.           0.
    2.83500n      0.           0.           0.           0.           0.           0.
    2.84000n      0.           0.           0.           0.           0.           0.
    2.84500n      0.           0.           0.           0.           0.           0.
    2.85000n      0.           0.           0.           0.           0.           0.
    2.85500n      0.           0.           0.           0.           0.           0.
    2.86000n      0.           0.           0.           0.           0.           0.
    2.86500n      0.           0.           0.           0.           0.           0.
    2.87000n      0.           0.           0.           0.           0.           0.
    2.87500n      0.           0.           0.           0.           0.           0.
    2.88000n      0.           0.           0.           0.           0.           0.
    2.88500n      0.           0.           0.           0.           0.           0.
    2.89000n      0.           0.           0.           0.           0.           0.
    2.89500n      0.           0.           0.           0.           0.           0.
    2.90000n      0.           0.           0.           0.           0.           0.
    2.90500n      0.           0.           0.           0.           0.           0.
    2.91000n      0.           0.           0.           0.           0.           0.
    2.91500n      0.           0.           0.           0.           0.           0.
    2.92000n      0.           0.           0.           0.           0.           0.
    2.92500n      0.           0.           0.           0.           0.           0.
    2.93000n      0.           0.           0.           0.           0.           0.
    2.93500n      0.           0.           0.           0.           0.           0.
    2.94000n      0.           0.           0.           0.           0.           0.
    2.94500n      0.           0.           0.           0.           0.           0.
    2.95000n      0.           0.           0.           0.           0.           0.
    2.95500n      0.           0.           0.           0.           0.           0.
    2.96000n      0.           0.           0.           0.           0.           0.
    2.96500n      0.           0.           0.           0.           0.           0.
    2.97000n      0.           0.           0.           0.           0.           0.
    2.97500n      0.           0.           0.           0.           0.           0.
    2.98000n      0.           0.           0.           0.           0.           0.
    2.98500n      0.           0.           0.           0.           0.           0.
    2.99000n      0.           0.           0.           0.           0.           0.
    2.99500n      0.           0.           0.           0.           0.           0.
    3.00000n      0.           0.           0.           0.           0.           0.
    3.00500n      0.           0.           0.           0.           0.           0.
    3.01000n      0.           0.           0.           0.           0.           0.
    3.01500n      0.           0.           0.           0.           0.           0.
    3.02000n      0.           0.           0.           0.           0.           0.
    3.02500n      0.           0.           0.           0.           0.           0.
    3.03000n      0.           0.           0.           0.           0.           0.
    3.03500n      0.           0.           0.           0.           0.           0.
    3.04000n      0.           0.           0.           0.           0.           0.
    3.04500n      0.           0.           0.           0.           0.           0.
    3.05000n      0.           0.           0.           0.           0.           0.
    3.05500n      0.           0.           0.           0.           0.           0.
    3.06000n      0.           0.           0.           0.           0.           0.
    3.06500n      0.           0.           0.           0.           0.           0.
    3.07000n      0.           0.           0.           0.           0.           0.
    3.07500n      0.           0.           0.           0.           0.           0.
    3.08000n      0.           0.           0.           0.           0.           0.
    3.08500n      0.           0.           0.           0.           0.           0.
    3.09000n      0.           0.           0.           0.           0.           0.
    3.09500n      0.           0.           0.           0.           0.           0.
    3.10000n      0.           0.           0.           0.           0.           0.
    3.10500n      0.           0.           0.           0.           0.           0.
    3.11000n      0.           0.           0.           0.           0.           0.
    3.11500n      0.           0.           0.           0.           0.           0.
    3.12000n      0.           0.           0.           0.           0.           0.
    3.12500n      0.           0.           0.           0.           0.           0.
    3.13000n      0.           0.           0.           0.           0.           0.
    3.13500n      0.           0.           0.           0.           0.           0.
    3.14000n      0.           0.           0.           0.           0.           0.
    3.14500n      0.           0.           0.           0.           0.           0.
    3.15000n      0.           0.           0.           0.           0.           0.
    3.15500n      0.           0.           0.           0.           0.           0.
    3.16000n      0.           0.           0.           0.           0.           0.
    3.16500n      0.           0.           0.           0.           0.           0.
    3.17000n      0.           0.           0.           0.           0.           0.
    3.17500n      0.           0.           0.           0.           0.           0.
    3.18000n      0.           0.           0.           0.           0.           0.
    3.18500n      0.           0.           0.           0.           0.           0.
    3.19000n      0.           0.           0.           0.           0.           0.
    3.19500n      0.           0.           0.           0.           0.           0.
    3.20000n      0.           0.           0.           0.           0.           0.
    3.20500n      0.           0.           0.           0.           0.           0.
    3.21000n      0.           0.           0.           0.           0.           0.
    3.21500n      0.           0.           0.           0.           0.           0.
    3.22000n      0.           0.           0.           0.           0.           0.
    3.22500n      0.           0.           0.           0.           0.           0.
    3.23000n      0.           0.           0.           0.           0.           0.
    3.23500n      0.           0.           0.           0.           0.           0.
    3.24000n      0.           0.           0.           0.           0.           0.
    3.24500n      0.           0.           0.           0.           0.           0.
    3.25000n      0.           0.           0.           0.           0.           0.
    3.25500n      0.           0.           0.           0.           0.           0.
    3.26000n      0.           0.           0.           0.           0.           0.
    3.26500n      0.           0.           0.           0.           0.           0.
    3.27000n      0.           0.           0.           0.           0.           0.
    3.27500n      0.           0.           0.           0.           0.           0.
    3.28000n      0.           0.           0.           0.           0.           0.
    3.28500n      0.           0.           0.           0.           0.           0.
    3.29000n      0.           0.           0.           0.           0.           0.
    3.29500n      0.           0.           0.           0.           0.           0.
    3.30000n      0.           0.           0.           0.           0.           0.
    3.30500n      0.           0.           0.           0.           0.           0.
    3.31000n      0.           0.           0.           0.           0.           0.
    3.31500n      0.           0.           0.           0.           0.           0.
    3.32000n      0.           0.           0.           0.           0.           0.
    3.32500n      0.           0.           0.           0.           0.           0.
    3.33000n      0.           0.           0.           0.           0.           0.
    3.33500n      0.           0.           0.           0.           0.           0.
    3.34000n      0.           0.           0.           0.           0.           0.
    3.34500n      0.           0.           0.           0.           0.           0.
    3.35000n      0.           0.           0.           0.           0.           0.
    3.35500n      0.           0.           0.           0.           0.           0.
    3.36000n      0.           0.           0.           0.           0.           0.
    3.36500n      0.           0.           0.           0.           0.           0.
    3.37000n      0.           0.           0.           0.           0.           0.
    3.37500n      0.           0.           0.           0.           0.           0.
    3.38000n      0.           0.           0.           0.           0.           0.
    3.38500n      0.           0.           0.           0.           0.           0.
    3.39000n      0.           0.           0.           0.           0.           0.
    3.39500n      0.           0.           0.           0.           0.           0.
    3.40000n      0.           0.           0.           0.           0.           0.
    3.40500n      0.           0.           0.           0.           0.           0.
    3.41000n      0.           0.           0.           0.           0.           0.
    3.41500n      0.           0.           0.           0.           0.           0.
    3.42000n      0.           0.           0.           0.           0.           0.
    3.42500n      0.           0.           0.           0.           0.           0.
    3.43000n      0.           0.           0.           0.           0.           0.
    3.43500n      0.           0.           0.           0.           0.           0.
    3.44000n      0.           0.           0.           0.           0.           0.
    3.44500n      0.           0.           0.           0.           0.           0.
    3.45000n      0.           0.           0.           0.           0.           0.
    3.45500n      0.           0.           0.           0.           0.           0.
    3.46000n      0.           0.           0.           0.           0.           0.
    3.46500n      0.           0.           0.           0.           0.           0.
    3.47000n      0.           0.           0.           0.           0.           0.
    3.47500n      0.           0.           0.           0.           0.           0.
    3.48000n      0.           0.           0.           0.           0.           0.
    3.48500n      0.           0.           0.           0.           0.           0.
    3.49000n      0.           0.           0.           0.           0.           0.
    3.49500n      0.           0.           0.           0.           0.           0.
    3.50000n      0.           0.           0.           0.           0.           0.
    3.50500n      0.           0.           0.           0.           0.           0.
    3.51000n      0.           0.           0.           0.           0.           0.
    3.51500n      0.           0.           0.           0.           0.           0.
    3.52000n      0.           0.           0.           0.           0.           0.
    3.52500n      0.           0.           0.           0.           0.           0.
    3.53000n      0.           0.           0.           0.           0.           0.
    3.53500n      0.           0.           0.           0.           0.           0.
    3.54000n      0.           0.           0.           0.           0.           0.
    3.54500n      0.           0.           0.           0.           0.           0.
    3.55000n      0.           0.           0.           0.           0.           0.
    3.55500n      0.           0.           0.           0.           0.           0.
    3.56000n      0.           0.           0.           0.           0.           0.
    3.56500n      0.           0.           0.           0.           0.           0.
    3.57000n      0.           0.           0.           0.           0.           0.
    3.57500n      0.           0.           0.           0.           0.           0.
    3.58000n      0.           0.           0.           0.           0.           0.
    3.58500n      0.           0.           0.           0.           0.           0.
    3.59000n      0.           0.           0.           0.           0.           0.
    3.59500n      0.           0.           0.           0.           0.           0.
    3.60000n      0.           0.           0.           0.           0.           0.
    3.60500n      0.           0.           0.           0.           0.           0.
    3.61000n      0.           0.           0.           0.           0.           0.
    3.61500n      0.           0.           0.           0.           0.           0.
    3.62000n      0.           0.           0.           0.           0.           0.
    3.62500n      0.           0.           0.           0.           0.           0.
    3.63000n      0.           0.           0.           0.           0.           0.
    3.63500n      0.           0.           0.           0.           0.           0.
    3.64000n      0.           0.           0.           0.           0.           0.
    3.64500n      0.           0.           0.           0.           0.           0.
    3.65000n      0.           0.           0.           0.           0.           0.
    3.65500n      0.           0.           0.           0.           0.           0.
    3.66000n      0.           0.           0.           0.           0.           0.
    3.66500n      0.           0.           0.           0.           0.           0.
    3.67000n      0.           0.           0.           0.           0.           0.
    3.67500n      0.           0.           0.           0.           0.           0.
    3.68000n      0.           0.           0.           0.           0.           0.
    3.68500n      0.           0.           0.           0.           0.           0.
    3.69000n      0.           0.           0.           0.           0.           0.
    3.69500n      0.           0.           0.           0.           0.           0.
    3.70000n      0.           0.           0.           0.           0.           0.
    3.70500n      0.           0.           0.           0.           0.           0.
    3.71000n      0.           0.           0.           0.           0.           0.
    3.71500n      0.           0.           0.           0.           0.           0.
    3.72000n      0.           0.           0.           0.           0.           0.
    3.72500n      0.           0.           0.           0.           0.           0.
    3.73000n      0.           0.           0.           0.           0.           0.
    3.73500n      0.           0.           0.           0.           0.           0.
    3.74000n      0.           0.           0.           0.           0.           0.
    3.74500n      0.           0.           0.           0.           0.           0.
    3.75000n      0.           0.           0.           0.           0.           0.
    3.75500n      0.           0.           0.           0.           0.           0.
    3.76000n      0.           0.           0.           0.           0.           0.
    3.76500n      0.           0.           0.           0.           0.           0.
    3.77000n      0.           0.           0.           0.           0.           0.
    3.77500n      0.           0.           0.           0.           0.           0.
    3.78000n      0.           0.           0.           0.           0.           0.
    3.78500n      0.           0.           0.           0.           0.           0.
    3.79000n      0.           0.           0.           0.           0.           0.
    3.79500n      0.           0.           0.           0.           0.           0.
    3.80000n      0.           0.           0.           0.           0.           0.
    3.80500n      0.           0.           0.           0.           0.           0.
    3.81000n      0.           0.           0.           0.           0.           0.
    3.81500n      0.           0.           0.           0.           0.           0.
    3.82000n      0.           0.           0.           0.           0.           0.
    3.82500n      0.           0.           0.           0.           0.           0.
    3.83000n      0.           0.           0.           0.           0.           0.
    3.83500n      0.           0.           0.           0.           0.           0.
    3.84000n      0.           0.           0.           0.           0.           0.
    3.84500n      0.           0.           0.           0.           0.           0.
    3.85000n      0.           0.           0.           0.           0.           0.
    3.85500n      0.           0.           0.           0.           0.           0.
    3.86000n      0.           0.           0.           0.           0.           0.
    3.86500n      0.           0.           0.           0.           0.           0.
    3.87000n      0.           0.           0.           0.           0.           0.
    3.87500n      0.           0.           0.           0.           0.           0.
    3.88000n      0.           0.           0.           0.           0.           0.
    3.88500n      0.           0.           0.           0.           0.           0.
    3.89000n      0.           0.           0.           0.           0.           0.
    3.89500n      0.           0.           0.           0.           0.           0.
    3.90000n      0.           0.           0.           0.           0.           0.
    3.90500n      0.           0.           0.           0.           0.           0.
    3.91000n      0.           0.           0.           0.           0.           0.
    3.91500n      0.           0.           0.           0.           0.           0.
    3.92000n      0.           0.           0.           0.           0.           0.
    3.92500n      0.           0.           0.           0.           0.           0.
    3.93000n      0.           0.           0.           0.           0.           0.
    3.93500n      0.           0.           0.           0.           0.           0.
    3.94000n      0.           0.           0.           0.           0.           0.
    3.94500n      0.           0.           0.           0.           0.           0.
    3.95000n      0.           0.           0.           0.           0.           0.
    3.95500n      0.           0.           0.           0.           0.           0.
    3.96000n      0.           0.           0.           0.           0.           0.
    3.96500n      0.           0.           0.           0.           0.           0.
    3.97000n      0.           0.           0.           0.           0.           0.
    3.97500n      0.           0.           0.           0.           0.           0.
    3.98000n      0.           0.           0.           0.           0.           0.
    3.98500n      0.           0.           0.           0.           0.           0.
    3.99000n      0.           0.           0.           0.           0.           0.
    3.99500n      0.           0.           0.           0.           0.           0.
    4.00000n      0.           0.           0.           0.           0.           0.
    4.00500n      0.           0.           0.           0.           0.           0.
    4.01000n      0.           0.           0.           0.           0.           0.
    4.01500n      0.           0.           0.           0.           0.           0.
    4.02000n      0.           0.           0.           0.           0.           0.
    4.02500n      0.           0.           0.           0.           0.           0.
    4.03000n      0.           0.           0.           0.           0.           0.
    4.03500n      0.           0.           0.           0.           0.           0.
    4.04000n      0.           0.           0.           0.           0.           0.
    4.04500n      0.           0.           0.           0.           0.           0.
    4.05000n      0.           0.           0.           0.           0.           0.
    4.05500n      0.           0.           0.           0.           0.           0.
    4.06000n      0.           0.           0.           0.           0.           0.
    4.06500n      0.           0.           0.           0.           0.           0.
    4.07000n      0.           0.           0.           0.           0.           0.
    4.07500n      0.           0.           0.           0.           0.           0.
    4.08000n      0.           0.           0.           0.           0.           0.
    4.08500n      0.           0.           0.           0.           0.           0.
    4.09000n      0.           0.           0.           0.           0.           0.
    4.09500n      0.           0.           0.           0.           0.           0.
    4.10000n      0.           0.           0.           0.           0.           0.
    4.10500n      0.           0.           0.           0.           0.           0.
    4.11000n      0.           0.           0.           0.           0.           0.
    4.11500n      0.           0.           0.           0.           0.           0.
    4.12000n      0.           0.           0.           0.           0.           0.
    4.12500n      0.           0.           0.           0.           0.           0.
    4.13000n      0.           0.           0.           0.           0.           0.
    4.13500n      0.           0.           0.           0.           0.           0.
    4.14000n      0.           0.           0.           0.           0.           0.
    4.14500n      0.           0.           0.           0.           0.           0.
    4.15000n      0.           0.           0.           0.           0.           0.
    4.15500n      0.           0.           0.           0.           0.           0.
    4.16000n      0.           0.           0.           0.           0.           0.
    4.16500n      0.           0.           0.           0.           0.           0.
    4.17000n      0.           0.           0.           0.           0.           0.
    4.17500n      0.           0.           0.           0.           0.           0.
    4.18000n      0.           0.           0.           0.           0.           0.
    4.18500n      0.           0.           0.           0.           0.           0.
    4.19000n      0.           0.           0.           0.           0.           0.
    4.19500n      0.           0.           0.           0.           0.           0.
    4.20000n      0.           0.           0.           0.           0.           0.
    4.20500n      0.           0.           0.           0.           0.           0.
    4.21000n      0.           0.           0.           0.           0.           0.
    4.21500n      0.           0.           0.           0.           0.           0.
    4.22000n      0.           0.           0.           0.           0.           0.
    4.22500n      0.           0.           0.           0.           0.           0.
    4.23000n      0.           0.           0.           0.           0.           0.
    4.23500n      0.           0.           0.           0.           0.           0.
    4.24000n      0.           0.           0.           0.           0.           0.
    4.24500n      0.           0.           0.           0.           0.           0.
    4.25000n      0.           0.           0.           0.           0.           0.
    4.25500n      0.           0.           0.           0.           0.           0.
    4.26000n      0.           0.           0.           0.           0.           0.
    4.26500n      0.           0.           0.           0.           0.           0.
    4.27000n      0.           0.           0.           0.           0.           0.
    4.27500n      0.           0.           0.           0.           0.           0.
    4.28000n      0.           0.           0.           0.           0.           0.
    4.28500n      0.           0.           0.           0.           0.           0.
    4.29000n      0.           0.           0.           0.           0.           0.
    4.29500n      0.           0.           0.           0.           0.           0.
    4.30000n      0.           0.           0.           0.           0.           0.
    4.30500n      0.           0.           0.           0.           0.           0.
    4.31000n      0.           0.           0.           0.           0.           0.
    4.31500n      0.           0.           0.           0.           0.           0.
    4.32000n      0.           0.           0.           0.           0.           0.
    4.32500n      0.           0.           0.           0.           0.           0.
    4.33000n      0.           0.           0.           0.           0.           0.
    4.33500n      0.           0.           0.           0.           0.           0.
    4.34000n      0.           0.           0.           0.           0.           0.
    4.34500n      0.           0.           0.           0.           0.           0.
    4.35000n      0.           0.           0.           0.           0.           0.
    4.35500n      0.           0.           0.           0.           0.           0.
    4.36000n      0.           0.           0.           0.           0.           0.
    4.36500n      0.           0.           0.           0.           0.           0.
    4.37000n      0.           0.           0.           0.           0.           0.
    4.37500n      0.           0.           0.           0.           0.           0.
    4.38000n      0.           0.           0.           0.           0.           0.
    4.38500n      0.           0.           0.           0.           0.           0.
    4.39000n      0.           0.           0.           0.           0.           0.
    4.39500n      0.           0.           0.           0.           0.           0.
    4.40000n      0.           0.           0.           0.           0.           0.
    4.40500n      0.           0.           0.           0.           0.           0.
    4.41000n      0.           0.           0.           0.           0.           0.
    4.41500n      0.           0.           0.           0.           0.           0.
    4.42000n      0.           0.           0.           0.           0.           0.
    4.42500n      0.           0.           0.           0.           0.           0.
    4.43000n      0.           0.           0.           0.           0.           0.
    4.43500n      0.           0.           0.           0.           0.           0.
    4.44000n      0.           0.           0.           0.           0.           0.
    4.44500n      0.           0.           0.           0.           0.           0.
    4.45000n      0.           0.           0.           0.           0.           0.
    4.45500n      0.           0.           0.           0.           0.           0.
    4.46000n      0.           0.           0.           0.           0.           0.
    4.46500n      0.           0.           0.           0.           0.           0.
    4.47000n      0.           0.           0.           0.           0.           0.
    4.47500n      0.           0.           0.           0.           0.           0.
    4.48000n      0.           0.           0.           0.           0.           0.
    4.48500n      0.           0.           0.           0.           0.           0.
    4.49000n      0.           0.           0.           0.           0.           0.
    4.49500n      0.           0.           0.           0.           0.           0.
    4.50000n      0.           0.           0.           0.           0.           0.
    4.50500n      0.           0.           0.           0.           0.           0.
    4.51000n      0.           0.           0.           0.           0.           0.
    4.51500n      0.           0.           0.           0.           0.           0.
    4.52000n      0.           0.           0.           0.           0.           0.
[...]
   98.96000n     68.6739u    -75.8063u    137.3162u      0.           0.           0.
   98.96500n     69.4007u    -76.5643u    137.6183u      0.           0.           0.
   98.97000n     70.1275u    -77.3222u    137.9205u      0.           0.           0.
   98.97500n     70.8543u    -78.0802u    138.2227u      0.           0.           0.
   98.98000n     71.5810u    -78.8382u    138.5248u      0.           0.           0.
   98.98500n     72.3078u    -79.5962u    138.8270u      0.           0.           0.
   98.99000n     73.0346u    -80.3542u    139.1291u      0.           0.           0.
   98.99500n     73.7614u    -81.1122u    139.4313u      0.           0.           0.
   99.00000n     74.4881u    -81.8701u    139.7335u      0.           0.           0.
   99.00500n     75.2149u    -82.6281u    140.0356u      0.           0.           0.
   99.01000n     75.7786u    -83.1568u    140.1003u      0.           0.           0.
   99.01500n     76.3331u    -83.6726u    140.1515u      0.           0.           0.
   99.02000n     76.8876u    -84.1884u    140.2027u      0.           0.           0.
   99.02500n     77.4422u    -84.7042u    140.2540u      0.           0.           0.
   99.03000n     77.9967u    -85.2200u    140.3052u      0.           0.           0.
   99.03500n     78.5512u    -85.7358u    140.3564u      0.           0.           0.
   99.04000n     79.1057u    -86.2516u    140.4077u      0.           0.           0.
   99.04500n     79.6602u    -86.7674u    140.4589u      0.           0.           0.
   99.05000n     80.2147u    -87.2832u    140.5101u      0.           0.           0.
   99.05500n     80.7692u    -87.7990u    140.5614u      0.           0.           0.
   99.06000n     81.1492u    -88.0761u    140.3744u      0.           0.           0.
   99.06500n     81.5194u    -88.3397u    140.1739u      0.           0.           0.
   99.07000n     81.8895u    -88.6034u    139.9735u      0.           0.           0.
   99.07500n     82.2597u    -88.8670u    139.7731u      0.           0.           0.
   99.08000n     82.6299u    -89.1307u    139.5726u      0.           0.           0.
   99.08500n     83.0000u    -89.3943u    139.3722u      0.           0.           0.
   99.09000n     83.3702u    -89.6580u    139.1717u      0.           0.           0.
   99.09500n     83.7403u    -89.9216u    138.9713u      0.           0.           0.
   99.10000n     84.1105u    -90.1853u    138.7709u      0.           0.           0.
   99.10500n     84.4806u    -90.4489u    138.5704u      0.           0.           0.
   99.11000n     84.6683u    -90.4705u    138.1330u      0.           0.           0.
   99.11500n     84.8456u    -90.4784u    137.6823u      0.           0.           0.
   99.12000n     85.0229u    -90.4863u    137.2315u      0.           0.           0.
   99.12500n     85.2003u    -90.4942u    136.7807u      0.           0.           0.
   99.13000n     85.3776u    -90.5021u    136.3300u      0.           0.           0.
   99.13500n     85.5549u    -90.5100u    135.8792u      0.           0.           0.
   99.14000n     85.7323u    -90.5179u    135.4284u      0.           0.           0.
   99.14500n     85.9096u    -90.5258u    134.9777u      0.           0.           0.
   99.15000n     86.0870u    -90.5337u    134.5269u      0.           0.           0.
   99.15500n     86.2643u    -90.5416u    134.0761u      0.           0.           0.
   99.16000n     86.2923u    -90.3683u    133.4738u      0.           0.           0.
   99.16500n     86.3119u    -90.1847u    132.8630u      0.           0.           0.
   99.17000n     86.3315u    -90.0011u    132.2522u      0.           0.           0.
   99.17500n     86.3511u    -89.8175u    131.6414u      0.           0.           0.
   99.18000n     86.3150u    -89.5578u    130.9462u      0.           0.           0.
   99.18500n     86.2060u    -89.1981u    130.1403u      0.           0.           0.
   99.19000n     86.0969u    -88.8385u    129.3344u      0.           0.           0.
   99.19500n     85.9879u    -88.4788u    128.5285u      0.           0.           0.
   99.20000n     85.8788u    -88.1192u    127.7227u      0.           0.           0.
   99.20500n     85.7698u    -87.7595u    126.9168u      0.           0.           0.
   99.21000n     85.6607u    -87.3998u    126.1109u      0.           0.           0.
   99.21500n     85.5517u    -87.0402u    125.3050u      0.           0.           0.
   99.22000n     85.4426u    -86.6805u    124.4992u      0.           0.           0.
   99.22500n     85.3336u    -86.3208u    123.6933u      0.           0.           0.
   99.23000n     85.1379u    -85.8584u    122.7973u      0.           0.           0.
   99.23500n     84.8287u    -85.2610u    121.7832u      0.           0.           0.
   99.24000n     84.5195u    -84.6637u    120.7690u      0.           0.           0.
   99.24500n     84.2103u    -84.0663u    119.7548u      0.           0.           0.
   99.25000n     83.9011u    -83.4689u    118.7407u      0.           0.           0.
   99.25500n     83.5918u    -82.8716u    117.7265u      0.           0.           0.
   99.26000n     83.2826u    -82.2742u    116.7123u      0.           0.           0.
   99.26500n     82.9734u    -81.6769u    115.6982u      0.           0.           0.
   99.27000n     82.6642u    -81.0795u    114.6840u      0.           0.           0.
   99.27500n     82.3550u    -80.4822u    113.6699u      0.           0.           0.
   99.28000n     81.9673u    -79.7966u    112.5851u      0.           0.           0.
   99.28500n     81.4766u    -78.9954u    111.4077u      0.           0.           0.
   99.29000n     80.9860u    -78.1942u    110.2304u      0.           0.           0.
   99.29500n     80.4953u    -77.3930u    109.0530u      0.           0.           0.
   99.30000n     80.0046u    -76.5917u    107.8756u      0.           0.           0.
   99.30500n     79.5140u    -75.7905u    106.6983u      0.           0.           0.
   99.31000n     79.0233u    -74.9893u    105.5209u      0.           0.           0.
   99.31500n     78.5327u    -74.1881u    104.3435u      0.           0.           0.
   99.32000n     77.9094u    -73.2334u    103.0137u      0.           0.           0.
   99.32500n     77.2845u    -72.2769u    101.6819u      0.           0.           0.
   99.33000n     76.6596u    -71.3203u    100.3501u      0.           0.           0.
   99.33500n     76.0347u    -70.3637u     99.0183u      0.           0.           0.
   99.34000n     75.4097u    -69.4071u     97.6865u      0.           0.           0.
   99.34500n     74.7848u    -68.4505u     96.3548u      0.           0.           0.
   99.35000n     74.1599u    -67.4939u     95.0230u      0.           0.           0.
   99.35500n     73.5349u    -66.5373u     93.6912u      0.           0.           0.
   99.36000n     72.9100u    -65.5807u     92.3594u      0.           0.           0.
   99.36500n     72.2851u    -64.6241u     91.0276u      0.           0.           0.
   99.37000n     71.4673u    -63.4713u     89.5605u      0.           0.           0.
   99.37500n     70.6470u    -62.3161u     88.0917u      0.           0.           0.
   99.38000n     69.8267u    -61.1608u     86.6228u      0.           0.           0.
   99.38500n     69.0064u    -60.0055u     85.1540u      0.           0.           0.
   99.39000n     68.1862u    -58.8502u     83.6852u      0.           0.           0.
   99.39500n     67.3659u    -57.6949u     82.2163u      0.           0.           0.
   99.40000n     66.5456u    -56.5396u     80.7475u      0.           0.           0.
   99.40500n     65.7253u    -55.3844u     79.2786u      0.           0.           0.
   99.41000n     64.9051u    -54.2291u     77.8098u      0.           0.           0.
   99.41500n     64.0848u    -53.0738u     76.3410u      0.           0.           0.
   99.42000n     63.1026u    -51.7650u     74.7684u      0.           0.           0.
   99.42500n     62.1184u    -50.4542u     73.1944u      0.           0.           0.
   99.43000n     61.1342u    -49.1434u     71.6205u      0.           0.           0.
   99.43500n     60.1500u    -47.8326u     70.0466u      0.           0.           0.
   99.44000n     59.1658u    -46.5218u     68.4726u      0.           0.           0.
   99.44500n     58.1816u    -45.2110u     66.8987u      0.           0.           0.
   99.45000n     57.1974u    -43.9002u     65.3248u      0.           0.           0.
   99.45500n     56.2132u    -42.5894u     63.7508u      0.           0.           0.
   99.46000n     55.2290u    -41.2786u     62.1769u      0.           0.           0.
   99.46500n     54.2448u    -39.9678u     60.6030u      0.           0.           0.
   99.47000n     53.1187u    -38.5364u     58.9623u      0.           0.           0.
   99.47500n     51.9909u    -37.1034u     57.3207u      0.           0.           0.
   99.48000n     50.8630u    -35.6705u     55.6792u      0.           0.           0.
   99.48500n     49.7351u    -34.2375u     54.0376u      0.           0.           0.
   99.49000n     48.6072u    -32.8046u     52.3961u      0.           0.           0.
   99.49500n     47.4793u    -31.3716u     50.7545u      0.           0.           0.
   99.50000n     46.3514u    -29.9387u     49.1130u      0.           0.           0.
   99.50500n     45.2235u    -28.5057u     47.4714u      0.           0.           0.
   99.51000n     44.0956u    -27.0728u     45.8299u      0.           0.           0.
   99.51500n     42.9678u    -25.6398u     44.1883u      0.           0.           0.
   99.52000n     41.7202u    -24.1205u     42.5186u      0.           0.           0.
   99.52500n     40.4710u    -22.6000u     40.8485u      0.           0.           0.
   99.53000n     39.2219u    -21.0795u     39.1784u      0.           0.           0.
   99.53500n     37.9728u    -19.5591u     37.5084u      0.           0.           0.
   99.54000n     36.7236u    -18.0386u     35.8383u      0.           0.           0.
   99.54500n     35.4745u    -16.5182u     34.1682u      0.           0.           0.
   99.55000n     34.2254u    -14.9977u     32.4981u      0.           0.           0.
   99.55500n     32.9762u    -13.4772u     30.8281u      0.           0.           0.
   99.56000n     31.7271u    -11.9568u     29.1580u      0.           0.           0.
   99.56500n     30.4780u    -10.4363u     27.4879u      0.           0.           0.
   99.57000n     29.1340u     -8.8649u     25.8289u      0.           0.           0.
   99.57500n     27.7888u     -7.2928u     24.1700u      0.           0.           0.
   99.58000n     26.4436u     -5.7206u     22.5111u      0.           0.           0.
   99.58500n     25.0984u     -4.1485u     20.8522u      0.           0.           0.
   99.59000n     23.7532u     -2.5764u     19.1933u      0.           0.           0.
   99.59500n     22.4080u     -1.0043u     17.5344u      0.           0.           0.
   99.60000n     21.0628u    567.7682n     15.8755u      0.           0.           0.
   99.60500n     19.7176u      2.1399u     14.2166u      0.           0.           0.
   99.61000n     18.3724u      3.7120u     12.5577u      0.           0.           0.
   99.61500n     17.0272u      5.2841u     10.8988u      0.           0.           0.
   99.62000n     15.6143u      6.8712u      9.2897u      0.           0.           0.
   99.62500n     14.2006u      8.4585u      7.6813u      0.           0.           0.
   99.63000n     12.7869u     10.0457u      6.0728u      0.           0.           0.
   99.63500n     11.3732u     11.6330u      4.4644u      0.           0.           0.
   99.64000n      9.9595u     13.2203u      2.8560u      0.           0.           0.
   99.64500n      8.5458u     14.8076u      1.2475u      0.           0.           0.
   99.65000n      7.1321u     16.3949u      0.           0.           0.           0.
   99.65500n      5.7184u     17.9821u     -1.9693u      0.           0.           0.
   99.66000n      4.3047u     19.5694u     -3.5778u      0.           0.           0.
   99.66500n      2.8910u     21.1567u     -5.1862u      0.           0.           0.
   99.67000n      1.4387u     22.7233u     -6.7075u      0.           0.           0.
   99.67500n      0.          24.2895u     -8.2276u      0.           0.           0.
   99.68000n     -1.4667u     25.8558u     -9.7478u      0.           0.           0.
   99.68500n     -2.9195u     27.4221u    -11.2679u      0.           0.           0.
   99.69000n     -4.3722u     28.9884u    -12.7880u      0.           0.           0.
   99.69500n     -5.8249u     30.5546u    -14.3082u      0.           0.           0.
   99.70000n     -7.2776u     32.1209u    -15.8283u      0.           0.           0.
   99.70500n     -8.7304u     33.6872u    -17.3484u      0.           0.           0.
   99.71000n    -10.1831u     35.2535u    -18.8686u      0.           0.           0.
   99.71500n    -11.6358u     36.8197u    -20.3887u      0.           0.           0.
   99.72000n    -13.0966u     38.3307u    -21.7866u      0.           0.           0.
   99.72500n    -14.5575u     39.8410u    -23.1829u      0.           0.           0.
   99.73000n    -16.0184u     41.3513u    -24.5792u      0.           0.           0.
   99.73500n    -17.4794u     42.8616u    -25.9754u      0.           0.           0.
   99.74000n    -18.9403u     44.3719u    -27.3717u      0.           0.           0.
   99.74500n    -20.4012u     45.8822u    -28.7680u      0.           0.           0.
   99.75000n    -21.8621u     47.3925u    -30.1643u      0.           0.           0.
   99.75500n    -23.3230u     48.9028u    -31.5606u      0.           0.           0.
   99.76000n    -24.7839u     50.4131u    -32.9569u      0.           0.           0.
   99.76500n    -26.2448u     51.9234u    -34.3532u      0.           0.           0.
   99.77000n    -27.7919u     53.4769u    -35.6542u      0.           0.           0.
   99.77500n    -29.3400u     55.0309u    -36.9539u      0.           0.           0.
   99.78000n    -30.8882u     56.5849u    -38.2537u      0.           0.           0.
   99.78500n    -32.4364u     58.1390u    -39.5534u      0.           0.           0.
   99.79000n    -33.9028u     59.5858u    -40.7843u      0.           0.           0.
   99.79500n    -35.2781u     60.9135u    -41.9385u      0.           0.           0.
   99.80000n    -36.6534u     62.2411u    -43.0928u      0.           0.           0.
   99.80500n    -38.0288u     63.5688u    -44.2470u      0.           0.           0.
   99.81000n    -39.4041u     64.8964u    -45.4013u      0.           0.           0.
   99.81500n    -40.7794u     66.2240u    -46.5555u      0.           0.           0.
   99.82000n    -42.1547u     67.5517u    -47.7097u      0.           0.           0.
   99.82500n    -43.5301u     68.8793u    -48.8640u      0.           0.           0.
   99.83000n    -44.9054u     70.2070u    -50.0182u      0.           0.           0.
   99.83500n    -46.2807u     71.5346u    -51.1725u      0.           0.           0.
   99.84000n    -47.6410u     72.8183u    -52.2367u      0.           0.           0.
   99.84500n    -48.9846u     74.0532u    -53.2008u      0.           0.           0.
   99.85000n    -50.3281u     75.2881u    -54.1649u      0.           0.           0.
   99.85500n    -51.6717u     76.5230u    -55.1290u      0.           0.           0.
   99.86000n    -53.0152u     77.7579u    -56.0931u      0.           0.           0.
   99.86500n    -54.3588u     78.9928u    -57.0571u      0.           0.           0.
   99.87000n    -55.7023u     80.2277u    -58.0212u      0.           0.           0.
   99.87500n    -57.0459u     81.4626u    -58.9853u      0.           0.           0.
   99.88000n    -58.3894u     82.6975u    -59.9494u      0.           0.           0.
   99.88500n    -59.7330u     83.9323u    -60.9135u      0.           0.           0.
   99.89000n    -61.0311u     85.0943u    -61.7749u      0.           0.           0.
   99.89500n    -62.2785u     86.1751u    -62.5221u      0.           0.           0.
   99.90000n    -63.5259u     87.2559u    -63.2692u      0.           0.           0.
   99.90500n    -64.7733u     88.3367u    -64.0164u      0.           0.           0.
   99.91000n    -66.0208u     89.4175u    -64.7635u      0.           0.           0.
   99.91500n    -67.2682u     90.4983u    -65.5107u      0.           0.           0.
   99.92000n    -68.5156u     91.5791u    -66.2578u      0.           0.           0.
   99.92500n    -69.7630u     92.6599u    -67.0050u      0.           0.           0.
   99.93000n    -71.0105u     93.7407u    -67.7521u      0.           0.           0.
   99.93500n    -72.2579u     94.8215u    -68.4993u      0.           0.           0.
   99.94000n    -73.4449u     95.8179u    -69.1361u      0.           0.           0.
   99.94500n    -74.5647u     96.7205u    -69.6502u      0.           0.           0.
   99.95000n    -75.6846u     97.6230u    -70.1642u      0.           0.           0.
   99.95500n    -76.8044u     98.5255u    -70.6783u      0.           0.           0.
   99.96000n    -77.9242u     99.4280u    -71.1923u      0.           0.           0.
   99.96500n    -79.0440u    100.3305u    -71.7063u      0.           0.           0.
   99.97000n    -80.1639u    101.2331u    -72.2204u      0.           0.           0.
   99.97500n    -81.2837u    102.1356u    -72.7344u      0.           0.           0.
   99.98000n    -82.4035u    103.0381u    -73.2485u      0.           0.           0.
   99.98500n    -83.5233u    103.9406u    -73.7625u      0.           0.           0.
   99.99000n    -84.6440u    104.8363u    -74.2213u      0.           0.           0.
   99.99500n    -85.7655u    105.7242u    -74.6185u      0.           0.           0.
  100.00000n    -86.8870u    106.6122u    -75.0157u      0.           0.           0.
y

          ***** job concluded
1****** HSPICE -- J-2014.09-SP1-2 64-BIT (Jan 29 2015) RHEL64 ******
 ******
 ******************** stl ver 2.3 t element basic model ********************

 ****** job statistics summary tnom=  25.000 temp=  25.000 ******


 ******  Machine Information  ******
 CPU:
 model name	: Intel(R) Xeon(R) CPU           W3520  @ 2.67GHz
 cpu MHz	: 2659.892

 OS:
 Linux version 3.10.0-327.18.2.el7.x86_64 (builder@kbuilder.dev.centos.org) (gcc version 4.8.3 20140911 (Red Hat 4.8.3-9) (GCC) ) #1 SMP Thu May 12 11:03:55 UTC 2016


  ******  HSPICE Threads Information  ******

  Command Line Threads Count :     1
  Available CPU Count        :     4
  Actual Threads Count       :     1


  ******  Circuit Statistics  ******
  # nodes       =      13 # elements   =      16
  # resistors   =       4 # capacitors =       2 # inductors   =       2
  # mutual_inds =       0 # vccs       =       0 # vcvs        =       0
  # cccs        =       0 # ccvs       =       0 # volt_srcs   =       2
  # curr_srcs   =       0 # diodes     =       0 # bjts        =       0
  # jfets       =       0 # mosfets    =       0 # U elements  =       0
  # T elements  =       3 # W elements =       3 # B elements  =       0
  # S elements  =       0 # P elements =       0 # va device   =       0
  # vector_srcs =       0 # N elements =       0


  ******  Runtime Statistics (seconds)  ******

  analysis           time    # points   tot. iter  conv.iter
  op point           0.00           1           4
  transient          0.10       20001        4312        2156 rev=         9
  readin             0.01
  errchk             0.01
  setup              0.00
  output             0.05


           peak memory used        161.32 megabytes
           total cpu time            0.17 seconds
           total elapsed time        0.18 seconds
           job started at     14:56:54 07/30/2018
           job ended   at     14:56:55 07/30/2018


 lic: total license checkout elapse time:        0.00(s)
