 ****** HSPICE -- J-2014.09-SP1-2 64-BIT (Jan 29 2015) RHEL64 ******            
  Copyright (C) 2014 Synopsys, Inc. All Rights Reserved.                        
  Unpublished-rights reserved under US copyright laws.
  This program is protected by law and is subject to the
  terms and conditions of the license agreement from Synopsys.
  Use of this program is your acceptance to be bound by the
  license agreement. HSPICE is the trademark of Synopsys, Inc.
  Input File: template_W_akt_isolation_light.sp                                 
  Command line options: -C template_W_akt_isolation_light.sp -o ./
 Init: read install configuration file: /usr/synopsys/J-2014.09-SP1-2/hspice/meta.cfg

 **warning** It is recommended that you set start explicitly:
             .TRAN tstep tstop START=val


  **info** (template_W_akt_isolation_light.sp:11) DC voltage reset to initial transient source value              in source        0:vs1                 new dc=  0.0000D+00
  
      
 *****************************************************************
 ******  option summary
 ******
 runlvl  = 3         bypass  = 2         

 **info** rebuilding matrix with pivot option

 **info** dc convergence successful at Newton-Raphson method 
1****** HSPICE -- J-2014.09-SP1-2 64-BIT (Jan 29 2015) RHEL64 ******            
 ******  
 ******************** stl ver 2.3 t element basic model ********************

 ****** operating point information tnom=  25.000 temp=  25.000 ******
 ****** operating point status is voltage   simulation time is     0.     
    node    =voltage      node    =voltage      node    =voltage      node    =voltage      node    =voltage

 +0:101     =   0.      0:102     =   0.      0:103     =   0.      0:104     =   0.      0:1001    =   0.     
 +0:1002    =   0.      0:optpt1  =   0.      0:optpt2  =   0.      0:optpt3  =   0.      0:vspt1   =   0.     
 +0:vspt2   =   0.      0:vspt3   =   0.     

 ******  
 ******************** stl ver 2.3 t element basic model ********************

 ****** transient analysis tnom=  25.000 temp=  25.000 ******
x

        time    voltage      voltage      voltage      voltage      voltage      voltage    
                  optpt1       optpt2       optpt3        vspt1        vspt2        vspt3   
    0.            0.           0.           0.           0.           0.           0.       
    5.00000p      0.           0.           0.           0.           0.           0.       
   10.00000p      0.           0.           0.           0.           0.           0.       
   15.00000p      0.           0.           0.           0.           0.           0.       
   20.00000p      0.           0.           0.           0.           0.           0.       
   25.00000p      0.           0.           0.           0.           0.           0.       
   30.00000p      0.           0.           0.           0.           0.           0.       
   35.00000p      0.           0.           0.           0.           0.           0.       
   40.00000p      0.           0.           0.           0.           0.           0.       
   45.00000p      0.           0.           0.           0.           0.           0.       
   50.00000p      0.           0.           0.           0.           0.           0.       
   55.00000p      0.           0.           0.           0.           0.           0.       
   60.00000p      0.           0.           0.           0.           0.           0.       
   65.00000p      0.           0.           0.           0.           0.           0.       
   70.00000p      0.           0.           0.           0.           0.           0.       
   75.00000p      0.           0.           0.           0.           0.           0.       
   80.00000p      0.           0.           0.           0.           0.           0.       
   85.00000p      0.           0.           0.           0.           0.           0.       
   90.00000p      0.           0.           0.           0.           0.           0.       
   95.00000p      0.           0.           0.           0.           0.           0.       
  100.00000p      0.           0.           0.           0.           0.           0.       
  105.00000p      0.           0.           0.           0.           0.           0.       
  110.00000p      0.           0.           0.           0.           0.           0.       
  115.00000p      0.           0.           0.           0.           0.           0.       
  120.00000p      0.           0.           0.           0.           0.           0.       
  125.00000p      0.           0.           0.           0.           0.           0.       
  130.00000p      0.           0.           0.           0.           0.           0.       
  135.00000p      0.           0.           0.           0.           0.           0.       
  140.00000p      0.           0.           0.           0.           0.           0.       
  145.00000p      0.           0.           0.           0.           0.           0.       
  150.00000p      0.           0.           0.           0.           0.           0.       
  155.00000p      0.           0.           0.           0.           0.           0.       
  160.00000p      0.           0.           0.           0.           0.           0.       
  165.00000p      0.           0.           0.           0.           0.           0.       
  170.00000p      0.           0.           0.           0.           0.           0.       
  175.00000p      0.           0.           0.           0.           0.           0.       
  180.00000p      0.           0.           0.           0.           0.           0.       
  185.00000p      0.           0.           0.           0.           0.           0.       
  190.00000p      0.           0.           0.           0.           0.           0.       
  195.00000p      0.           0.           0.           0.           0.           0.       
  200.00000p      0.           0.           0.           0.           0.           0.       
  205.00000p      0.           0.           0.           0.           0.           0.       
  210.00000p      0.           0.           0.           0.           0.           0.       
  215.00000p      0.           0.           0.           0.           0.           0.       
  220.00000p      0.           0.           0.           0.           0.           0.       
  225.00000p      0.           0.           0.           0.           0.           0.       
  230.00000p      0.           0.           0.           0.           0.           0.       
  235.00000p      0.           0.           0.           0.           0.           0.       
  240.00000p      0.           0.           0.           0.           0.           0.       
  245.00000p      0.           0.           0.           0.           0.           0.       
  250.00000p      0.           0.           0.           0.           0.           0.       
  255.00000p      0.           0.           0.           0.           0.           0.       
  260.00000p      0.           0.           0.           0.           0.           0.       
  265.00000p      0.           0.           0.           0.           0.           0.       
  270.00000p      0.           0.           0.           0.           0.           0.       
  275.00000p      0.           0.           0.           0.           0.           0.       
  280.00000p      0.           0.           0.           0.           0.           0.       
  285.00000p      0.           0.           0.           0.           0.           0.       
  290.00000p      0.           0.           0.           0.           0.           0.       
  295.00000p      0.           0.           0.           0.           0.           0.       
  300.00000p      0.           0.           0.           0.           0.           0.       
  305.00000p      0.           0.           0.           0.           0.           0.       
  310.00000p      0.           0.           0.           0.           0.           0.       
  315.00000p      0.           0.           0.           0.           0.           0.       
  320.00000p      0.           0.           0.           0.           0.           0.       
  325.00000p      0.           0.           0.           0.           0.           0.       
  330.00000p      0.           0.           0.           0.           0.           0.       
  335.00000p      0.           0.           0.           0.           0.           0.       
  340.00000p      0.           0.           0.           0.           0.           0.       
  345.00000p      0.           0.           0.           0.           0.           0.       
  350.00000p      0.           0.           0.           0.           0.           0.       
  355.00000p      0.           0.           0.           0.           0.           0.       
  360.00000p      0.           0.           0.           0.           0.           0.       
  365.00000p      0.           0.           0.           0.           0.           0.       
  370.00000p      0.           0.           0.           0.           0.           0.       
  375.00000p      0.           0.           0.           0.           0.           0.       
  380.00000p      0.           0.           0.           0.           0.           0.       
  385.00000p      0.           0.           0.           0.           0.           0.       
  390.00000p      0.           0.           0.           0.           0.           0.       
  395.00000p      0.           0.           0.           0.           0.           0.       
  400.00000p      0.           0.           0.           0.           0.           0.       
  405.00000p      0.           0.           0.           0.           0.           0.       
  410.00000p      0.           0.           0.           0.           0.           0.       
  415.00000p      0.           0.           0.           0.           0.           0.       
  420.00000p      0.           0.           0.           0.           0.           0.       
  425.00000p      0.           0.           0.           0.           0.           0.       
  430.00000p      0.           0.           0.           0.           0.           0.       
  435.00000p      0.           0.           0.           0.           0.           0.       
  440.00000p      0.           0.           0.           0.           0.           0.       
  445.00000p      0.           0.           0.           0.           0.           0.       
  450.00000p      0.           0.           0.           0.           0.           0.       
  455.00000p      0.           0.           0.           0.           0.           0.       
  460.00000p      0.           0.           0.           0.           0.           0.       
  465.00000p      0.           0.           0.           0.           0.           0.       
  470.00000p      0.           0.           0.           0.           0.           0.       
  475.00000p      0.           0.           0.           0.           0.           0.       
  480.00000p      0.           0.           0.           0.           0.           0.       
  485.00000p      0.           0.           0.           0.           0.           0.       
  490.00000p      0.           0.           0.           0.           0.           0.       
  495.00000p      0.           0.           0.           0.           0.           0.       
  500.00000p      0.           0.           0.           0.           0.           0.       
  505.00000p      0.           0.           0.           0.           0.           0.       
  510.00000p      0.           0.           0.           0.           0.           0.       
  515.00000p      0.           0.           0.           0.           0.           0.       
  520.00000p      0.           0.           0.           0.           0.           0.       
  525.00000p      0.           0.           0.           0.           0.           0.       
  530.00000p      0.           0.           0.           0.           0.           0.       
  535.00000p      0.           0.           0.           0.           0.           0.       
  540.00000p      0.           0.           0.           0.           0.           0.       
  545.00000p      0.           0.           0.           0.           0.           0.       
  550.00000p      0.           0.           0.           0.           0.           0.       
  555.00000p      0.           0.           0.           0.           0.           0.       
  560.00000p      0.           0.           0.           0.           0.           0.       
  565.00000p      0.           0.           0.           0.           0.           0.       
  570.00000p      0.           0.           0.           0.           0.           0.       
  575.00000p      0.           0.           0.           0.           0.           0.       
  580.00000p      0.           0.           0.           0.           0.           0.       
  585.00000p      0.           0.           0.           0.           0.           0.       
  590.00000p      0.           0.           0.           0.           0.           0.       
  595.00000p      0.           0.           0.           0.           0.           0.       
  600.00000p      0.           0.           0.           0.           0.           0.       
  605.00000p      0.           0.           0.           0.           0.           0.       
  610.00000p      0.           0.           0.           0.           0.           0.       
  615.00000p      0.           0.           0.           0.           0.           0.       
  620.00000p      0.           0.           0.           0.           0.           0.       
  625.00000p      0.           0.           0.           0.           0.           0.       
  630.00000p      0.           0.           0.           0.           0.           0.       
  635.00000p      0.           0.           0.           0.           0.           0.       
  640.00000p      0.           0.           0.           0.           0.           0.       
  645.00000p      0.           0.           0.           0.           0.           0.       
  650.00000p      0.           0.           0.           0.           0.           0.       
  655.00000p      0.           0.           0.           0.           0.           0.       
  660.00000p      0.           0.           0.           0.           0.           0.       
  665.00000p      0.           0.           0.           0.           0.           0.       
  670.00000p      0.           0.           0.           0.           0.           0.       
  675.00000p      0.           0.           0.           0.           0.           0.       
  680.00000p      0.           0.           0.           0.           0.           0.       
  685.00000p      0.           0.           0.           0.           0.           0.       
  690.00000p      0.           0.           0.           0.           0.           0.       
  695.00000p      0.           0.           0.           0.           0.           0.       
  700.00000p      0.           0.           0.           0.           0.           0.       
  705.00000p      0.           0.           0.           0.           0.           0.       
  710.00000p      0.           0.           0.           0.           0.           0.       
  715.00000p      0.           0.           0.           0.           0.           0.       
  720.00000p      0.           0.           0.           0.           0.           0.       
  725.00000p      0.           0.           0.           0.           0.           0.       
  730.00000p      0.           0.           0.           0.           0.           0.       
  735.00000p      0.           0.           0.           0.           0.           0.       
  740.00000p      0.           0.           0.           0.           0.           0.       
  745.00000p      0.           0.           0.           0.           0.           0.       
  750.00000p      0.           0.           0.           0.           0.           0.       
  755.00000p      0.           0.           0.           0.           0.           0.       
  760.00000p      0.           0.           0.           0.           0.           0.       
  765.00000p      0.           0.           0.           0.           0.           0.       
  770.00000p      0.           0.           0.           0.           0.           0.       
  775.00000p      0.           0.           0.           0.           0.           0.       
  780.00000p      0.           0.           0.           0.           0.           0.       
  785.00000p      0.           0.           0.           0.           0.           0.       
  790.00000p      0.           0.           0.           0.           0.           0.       
  795.00000p      0.           0.           0.           0.           0.           0.       
  800.00000p      0.           0.           0.           0.           0.           0.       
  805.00000p      0.           0.           0.           0.           0.           0.       
  810.00000p      0.           0.           0.           0.           0.           0.       
  815.00000p      0.           0.           0.           0.           0.           0.       
  820.00000p      0.           0.           0.           0.           0.           0.       
  825.00000p      0.           0.           0.           0.           0.           0.       
  830.00000p      0.           0.           0.           0.           0.           0.       
  835.00000p      0.           0.           0.           0.           0.           0.       
  840.00000p      0.           0.           0.           0.           0.           0.       
  845.00000p      0.           0.           0.           0.           0.           0.       
  850.00000p      0.           0.           0.           0.           0.           0.       
  855.00000p      0.           0.           0.           0.           0.           0.       
  860.00000p      0.           0.           0.           0.           0.           0.       
  865.00000p      0.           0.           0.           0.           0.           0.       
  870.00000p      0.           0.           0.           0.           0.           0.       
  875.00000p      0.           0.           0.           0.           0.           0.       
  880.00000p      0.           0.           0.           0.           0.           0.       
  885.00000p      0.           0.           0.           0.           0.           0.       
  890.00000p      0.           0.           0.           0.           0.           0.       
  895.00000p      0.           0.           0.           0.           0.           0.       
  900.00000p      0.           0.           0.           0.           0.           0.       
  905.00000p      0.           0.           0.           0.           0.           0.       
  910.00000p      0.           0.           0.           0.           0.           0.       
  915.00000p      0.           0.           0.           0.           0.           0.       
  920.00000p      0.           0.           0.           0.           0.           0.       
  925.00000p      0.           0.           0.           0.           0.           0.       
  930.00000p      0.           0.           0.           0.           0.           0.       
  935.00000p      0.           0.           0.           0.           0.           0.       
  940.00000p      0.           0.           0.           0.           0.           0.       
  945.00000p      0.           0.           0.           0.           0.           0.       
  950.00000p      0.           0.           0.           0.           0.           0.       
  955.00000p      0.           0.           0.           0.           0.           0.       
  960.00000p      0.           0.           0.           0.           0.           0.       
  965.00000p      0.           0.           0.           0.           0.           0.       
  970.00000p      0.           0.           0.           0.           0.           0.       
  975.00000p      0.           0.           0.           0.           0.           0.       
  980.00000p      0.           0.           0.           0.           0.           0.       
  985.00000p      0.           0.           0.           0.           0.           0.       
  990.00000p      0.           0.           0.           0.           0.           0.       
  995.00000p      0.           0.           0.           0.           0.           0.       
    1.00000n      0.           0.           0.           0.           0.           0.       
    1.00500n      0.           0.           0.           0.           0.           0.       
    1.01000n      0.           0.           0.           0.           0.           0.       
    1.01500n      0.           0.           0.           0.           0.           0.       
    1.02000n      0.           0.           0.           0.           0.           0.       
    1.02500n      0.           0.           0.           0.           0.           0.       
    1.03000n      0.           0.           0.           0.           0.           0.       
    1.03500n      0.           0.           0.           0.           0.           0.       
    1.04000n      0.           0.           0.           0.           0.           0.       
    1.04500n      0.           0.           0.           0.           0.           0.       
    1.05000n      0.           0.           0.           0.           0.           0.       
    1.05500n      0.           0.           0.           0.           0.           0.       
    1.06000n      0.           0.           0.           0.           0.           0.       
    1.06500n      0.           0.           0.           0.           0.           0.       
    1.07000n      0.           0.           0.           0.           0.           0.       
    1.07500n      0.           0.           0.           0.           0.           0.       
    1.08000n      0.           0.           0.           0.           0.           0.       
    1.08500n      0.           0.           0.           0.           0.           0.       
    1.09000n      0.           0.           0.           0.           0.           0.       
    1.09500n      0.           0.           0.           0.           0.           0.       
    1.10000n      0.           0.           0.           0.           0.           0.       
    1.10500n      0.           0.           0.           0.           0.           0.       
    1.11000n      0.           0.           0.           0.           0.           0.       
    1.11500n      0.           0.           0.           0.           0.           0.       
    1.12000n      0.           0.           0.           0.           0.           0.       
    1.12500n      0.           0.           0.           0.           0.           0.       
    1.13000n      0.           0.           0.           0.           0.           0.       
    1.13500n      0.           0.           0.           0.           0.           0.       
    1.14000n      0.           0.           0.           0.           0.           0.       
    1.14500n      0.           0.           0.           0.           0.           0.       
    1.15000n      0.           0.           0.           0.           0.           0.       
    1.15500n      0.           0.           0.           0.           0.           0.       
    1.16000n      0.           0.           0.           0.           0.           0.       
    1.16500n      0.           0.           0.           0.           0.           0.       
    1.17000n      0.           0.           0.           0.           0.           0.       
    1.17500n      0.           0.           0.           0.           0.           0.       
    1.18000n      0.           0.           0.           0.           0.           0.       
    1.18500n      0.           0.           0.           0.           0.           0.       
    1.19000n      0.           0.           0.           0.           0.           0.       
    1.19500n      0.           0.           0.           0.           0.           0.       
    1.20000n      0.           0.           0.           0.           0.           0.       
    1.20500n      0.           0.           0.           0.           0.           0.       
    1.21000n      0.           0.           0.           0.           0.           0.       
    1.21500n      0.           0.           0.           0.           0.           0.       
    1.22000n      0.           0.           0.           0.           0.           0.       
    1.22500n      0.           0.           0.           0.           0.           0.       
    1.23000n      0.           0.           0.           0.           0.           0.       
    1.23500n      0.           0.           0.           0.           0.           0.       
    1.24000n      0.           0.           0.           0.           0.           0.       
    1.24500n      0.           0.           0.           0.           0.           0.       
    1.25000n      0.           0.           0.           0.           0.           0.       
    1.25500n      0.           0.           0.           0.           0.           0.       
    1.26000n      0.           0.           0.           0.           0.           0.       
    1.26500n      0.           0.           0.           0.           0.           0.       
    1.27000n      0.           0.           0.           0.           0.           0.       
    1.27500n      0.           0.           0.           0.           0.           0.       
    1.28000n      0.           0.           0.           0.           0.           0.       
    1.28500n      0.           0.           0.           0.           0.           0.       
    1.29000n      0.           0.           0.           0.           0.           0.       
    1.29500n      0.           0.           0.           0.           0.           0.       
    1.30000n      0.           0.           0.           0.           0.           0.       
    1.30500n      0.           0.           0.           0.           0.           0.       
    1.31000n      0.           0.           0.           0.           0.           0.       
    1.31500n      0.           0.           0.           0.           0.           0.       
    1.32000n      0.           0.           0.           0.           0.           0.       
    1.32500n      0.           0.           0.           0.           0.           0.       
    1.33000n      0.           0.           0.           0.           0.           0.       
    1.33500n      0.           0.           0.           0.           0.           0.       
    1.34000n      0.           0.           0.           0.           0.           0.       
    1.34500n      0.           0.           0.           0.           0.           0.       
    1.35000n      0.           0.           0.           0.           0.           0.       
    1.35500n      0.           0.           0.           0.           0.           0.       
    1.36000n      0.           0.           0.           0.           0.           0.       
    1.36500n      0.           0.           0.           0.           0.           0.       
    1.37000n      0.           0.           0.           0.           0.           0.       
    1.37500n      0.           0.           0.           0.           0.           0.       
    1.38000n      0.           0.           0.           0.           0.           0.       
    1.38500n      0.           0.           0.           0.           0.           0.       
    1.39000n      0.           0.           0.           0.           0.           0.       
    1.39500n      0.           0.           0.           0.           0.           0.       
    1.40000n      0.           0.           0.           0.           0.           0.       
    1.40500n      0.           0.           0.           0.           0.           0.       
    1.41000n      0.           0.           0.           0.           0.           0.       
    1.41500n      0.           0.           0.           0.           0.           0.       
    1.42000n      0.           0.           0.           0.           0.           0.       
    1.42500n      0.           0.           0.           0.           0.           0.       
    1.43000n      0.           0.           0.           0.           0.           0.       
    1.43500n      0.           0.           0.           0.           0.           0.       
    1.44000n      0.           0.           0.           0.           0.           0.       
    1.44500n      0.           0.           0.           0.           0.           0.       
    1.45000n      0.           0.           0.           0.           0.           0.       
    1.45500n      0.           0.           0.           0.           0.           0.       
    1.46000n      0.           0.           0.           0.           0.           0.       
    1.46500n      0.           0.           0.           0.           0.           0.       
    1.47000n      0.           0.           0.           0.           0.           0.       
    1.47500n      0.           0.           0.           0.           0.           0.       
    1.48000n      0.           0.           0.           0.           0.           0.       
    1.48500n      0.           0.           0.           0.           0.           0.       
    1.49000n      0.           0.           0.           0.           0.           0.       
    1.49500n      0.           0.           0.           0.           0.           0.       
    1.50000n      0.           0.           0.           0.           0.           0.       
    1.50500n      0.           0.           0.           0.           0.           0.       
    1.51000n      0.           0.           0.           0.           0.           0.       
    1.51500n      0.           0.           0.           0.           0.           0.       
    1.52000n      0.           0.           0.           0.           0.           0.       
    1.52500n      0.           0.           0.           0.           0.           0.       
    1.53000n      0.           0.           0.           0.           0.           0.       
    1.53500n      0.           0.           0.           0.           0.           0.       
    1.54000n      0.           0.           0.           0.           0.           0.       
    1.54500n      0.           0.           0.           0.           0.           0.       
    1.55000n      0.           0.           0.           0.           0.           0.       
    1.55500n      0.           0.           0.           0.           0.           0.       
    1.56000n      0.           0.           0.           0.           0.           0.       
    1.56500n      0.           0.           0.           0.           0.           0.       
    1.57000n      0.           0.           0.           0.           0.           0.       
    1.57500n      0.           0.           0.           0.           0.           0.       
    1.58000n      0.           0.           0.           0.           0.           0.       
    1.58500n      0.           0.           0.           0.           0.           0.       
    1.59000n      0.           0.           0.           0.           0.           0.       
    1.59500n      0.           0.           0.           0.           0.           0.       
    1.60000n      0.           0.           0.           0.           0.           0.       
    1.60500n      0.           0.           0.           0.           0.           0.       
    1.61000n      0.           0.           0.           0.           0.           0.       
    1.61500n      0.           0.           0.           0.           0.           0.       
    1.62000n      0.           0.           0.           0.           0.           0.       
    1.62500n      0.           0.           0.           0.           0.           0.       
    1.63000n      0.           0.           0.           0.           0.           0.       
    1.63500n      0.           0.           0.           0.           0.           0.       
    1.64000n      0.           0.           0.           0.           0.           0.       
    1.64500n      0.           0.           0.           0.           0.           0.       
    1.65000n      0.           0.           0.           0.           0.           0.       
    1.65500n      0.           0.           0.           0.           0.           0.       
    1.66000n      0.           0.           0.           0.           0.           0.       
    1.66500n      0.           0.           0.           0.           0.           0.       
    1.67000n      0.           0.           0.           0.           0.           0.       
    1.67500n      0.           0.           0.           0.           0.           0.       
    1.68000n      0.           0.           0.           0.           0.           0.       
    1.68500n      0.           0.           0.           0.           0.           0.       
    1.69000n      0.           0.           0.           0.           0.           0.       
    1.69500n      0.           0.           0.           0.           0.           0.       
    1.70000n      0.           0.           0.           0.           0.           0.       
    1.70500n      0.           0.           0.           0.           0.           0.       
    1.71000n      0.           0.           0.           0.           0.           0.       
    1.71500n      0.           0.           0.           0.           0.           0.       
    1.72000n      0.           0.           0.           0.           0.           0.       
    1.72500n      0.           0.           0.           0.           0.           0.       
    1.73000n      0.           0.           0.           0.           0.           0.       
    1.73500n      0.           0.           0.           0.           0.           0.       
    1.74000n      0.           0.           0.           0.           0.           0.       
    1.74500n      0.           0.           0.           0.           0.           0.       
    1.75000n      0.           0.           0.           0.           0.           0.       
    1.75500n      0.           0.           0.           0.           0.           0.       
    1.76000n      0.           0.           0.           0.           0.           0.       
    1.76500n      0.           0.           0.           0.           0.           0.       
    1.77000n      0.           0.           0.           0.           0.           0.       
    1.77500n      0.           0.           0.           0.           0.           0.       
    1.78000n      0.           0.           0.           0.           0.           0.       
    1.78500n      0.           0.           0.           0.           0.           0.       
    1.79000n      0.           0.           0.           0.           0.           0.       
    1.79500n      0.           0.           0.           0.           0.           0.       
    1.80000n      0.           0.           0.           0.           0.           0.       
    1.80500n      0.           0.           0.           0.           0.           0.       
    1.81000n      0.           0.           0.           0.           0.           0.       
    1.81500n      0.           0.           0.           0.           0.           0.       
    1.82000n      0.           0.           0.           0.           0.           0.       
    1.82500n      0.           0.           0.           0.           0.           0.       
    1.83000n      0.           0.           0.           0.           0.           0.       
    1.83500n      0.           0.           0.           0.           0.           0.       
    1.84000n      0.           0.           0.           0.           0.           0.       
    1.84500n      0.           0.           0.           0.           0.           0.       
    1.85000n      0.           0.           0.           0.           0.           0.       
    1.85500n      0.           0.           0.           0.           0.           0.       
    1.86000n      0.           0.           0.           0.           0.           0.       
    1.86500n      0.           0.           0.           0.           0.           0.       
    1.87000n      0.           0.           0.           0.           0.           0.       
    1.87500n      0.           0.           0.           0.           0.           0.       
    1.88000n      0.           0.           0.           0.           0.           0.       
    1.88500n      0.           0.           0.           0.           0.           0.       
    1.89000n      0.           0.           0.           0.           0.           0.       
    1.89500n      0.           0.           0.           0.           0.           0.       
    1.90000n      0.           0.           0.           0.           0.           0.       
    1.90500n      0.           0.           0.           0.           0.           0.       
    1.91000n      0.           0.           0.           0.           0.           0.       
    1.91500n      0.           0.           0.           0.           0.           0.       
    1.92000n      0.           0.           0.           0.           0.           0.       
    1.92500n      0.           0.           0.           0.           0.           0.       
    1.93000n      0.           0.           0.           0.           0.           0.       
    1.93500n      0.           0.           0.           0.           0.           0.       
    1.94000n      0.           0.           0.           0.           0.           0.       
    1.94500n      0.           0.           0.           0.           0.           0.       
    1.95000n      0.           0.           0.           0.           0.           0.       
    1.95500n      0.           0.           0.           0.           0.           0.       
    1.96000n      0.           0.           0.           0.           0.           0.       
    1.96500n      0.           0.           0.           0.           0.           0.       
    1.97000n      0.           0.           0.           0.           0.           0.       
    1.97500n      0.           0.           0.           0.           0.           0.       
    1.98000n      0.           0.           0.           0.           0.           0.       
    1.98500n      0.           0.           0.           0.           0.           0.       
    1.99000n      0.           0.           0.           0.           0.           0.       
    1.99500n      0.           0.           0.           0.           0.           0.       
    2.00000n      0.           0.           0.           0.           0.           0.       
    2.00500n      0.           0.           0.           0.           0.           0.       
    2.01000n      0.           0.           0.           0.           0.           0.       
    2.01500n      0.           0.           0.           0.           0.           0.       
    2.02000n      0.           0.           0.           0.           0.           0.       
    2.02500n      0.           0.           0.           0.           0.           0.       
    2.03000n      0.           0.           0.           0.           0.           0.       
    2.03500n      0.           0.           0.           0.           0.           0.       
    2.04000n      0.           0.           0.           0.           0.           0.       
    2.04500n      0.           0.           0.           0.           0.           0.       
    2.05000n      0.           0.           0.           0.           0.           0.       
    2.05500n      0.           0.           0.           0.           0.           0.       
    2.06000n      0.           0.           0.           0.           0.           0.       
    2.06500n      0.           0.           0.           0.           0.           0.       
    2.07000n      0.           0.           0.           0.           0.           0.       
    2.07500n      0.           0.           0.           0.           0.           0.       
    2.08000n      0.           0.           0.           0.           0.           0.       
    2.08500n      0.           0.           0.           0.           0.           0.       
    2.09000n      0.           0.           0.           0.           0.           0.       
    2.09500n      0.           0.           0.           0.           0.           0.       
    2.10000n      0.           0.           0.           0.           0.           0.       
    2.10500n      0.           0.           0.           0.           0.           0.       
    2.11000n      0.           0.           0.           0.           0.           0.       
    2.11500n      0.           0.           0.           0.           0.           0.       
    2.12000n      0.           0.           0.           0.           0.           0.       
    2.12500n      0.           0.           0.           0.           0.           0.       
    2.13000n      0.           0.           0.           0.           0.           0.       
    2.13500n      0.           0.           0.           0.           0.           0.       
    2.14000n      0.           0.           0.           0.           0.           0.       
    2.14500n      0.           0.           0.           0.           0.           0.       
    2.15000n      0.           0.           0.           0.           0.           0.       
    2.15500n      0.           0.           0.           0.           0.           0.       
    2.16000n      0.           0.           0.           0.           0.           0.       
    2.16500n      0.           0.           0.           0.           0.           0.       
    2.17000n      0.           0.           0.           0.           0.           0.       
    2.17500n      0.           0.           0.           0.           0.           0.       
    2.18000n      0.           0.           0.           0.           0.           0.       
    2.18500n      0.           0.           0.           0.           0.           0.       
    2.19000n      0.           0.           0.           0.           0.           0.       
    2.19500n      0.           0.           0.           0.           0.           0.       
    2.20000n      0.           0.           0.           0.           0.           0.       
    2.20500n      0.           0.           0.           0.           0.           0.       
    2.21000n      0.           0.           0.           0.           0.           0.       
    2.21500n      0.           0.           0.           0.           0.           0.       
    2.22000n      0.           0.           0.           0.           0.           0.       
    2.22500n      0.           0.           0.           0.           0.           0.       
    2.23000n      0.           0.           0.           0.           0.           0.       
    2.23500n      0.           0.           0.           0.           0.           0.       
    2.24000n      0.           0.           0.           0.           0.           0.       
    2.24500n      0.           0.           0.           0.           0.           0.       
    2.25000n      0.           0.           0.           0.           0.           0.       
    2.25500n      0.           0.           0.           0.           0.           0.       
    2.26000n      0.           0.           0.           0.           0.           0.       
    2.26500n      0.           0.           0.           0.           0.           0.       
    2.27000n      0.           0.           0.           0.           0.           0.       
    2.27500n      0.           0.           0.           0.           0.           0.       
    2.28000n      0.           0.           0.           0.           0.           0.       
    2.28500n      0.           0.           0.           0.           0.           0.       
    2.29000n      0.           0.           0.           0.           0.           0.       
    2.29500n      0.           0.           0.           0.           0.           0.       
    2.30000n      0.           0.           0.           0.           0.           0.       
    2.30500n      0.           0.           0.           0.           0.           0.       
    2.31000n      0.           0.           0.           0.           0.           0.       
    2.31500n      0.           0.           0.           0.           0.           0.       
    2.32000n      0.           0.           0.           0.           0.           0.       
    2.32500n      0.           0.           0.           0.           0.           0.       
    2.33000n      0.           0.           0.           0.           0.           0.       
    2.33500n      0.           0.           0.           0.           0.           0.       
    2.34000n      0.           0.           0.           0.           0.           0.       
    2.34500n      0.           0.           0.           0.           0.           0.       
    2.35000n      0.           0.           0.           0.           0.           0.       
    2.35500n      0.           0.           0.           0.           0.           0.       
    2.36000n      0.           0.           0.           0.           0.           0.       
    2.36500n      0.           0.           0.           0.           0.           0.       
    2.37000n      0.           0.           0.           0.           0.           0.       
    2.37500n      0.           0.           0.           0.           0.           0.       
    2.38000n      0.           0.           0.           0.           0.           0.       
    2.38500n      0.           0.           0.           0.           0.           0.       
    2.39000n      0.           0.           0.           0.           0.           0.       
    2.39500n      0.           0.           0.           0.           0.           0.       
    2.40000n      0.           0.           0.           0.           0.           0.       
    2.40500n      0.           0.           0.           0.           0.           0.       
    2.41000n      0.           0.           0.           0.           0.           0.       
    2.41500n      0.           0.           0.           0.           0.           0.       
    2.42000n      0.           0.           0.           0.           0.           0.       
    2.42500n      0.           0.           0.           0.           0.           0.       
    2.43000n      0.           0.           0.           0.           0.           0.       
    2.43500n      0.           0.           0.           0.           0.           0.       
    2.44000n      0.           0.           0.           0.           0.           0.       
    2.44500n      0.           0.           0.           0.           0.           0.       
    2.45000n      0.           0.           0.           0.           0.           0.       
    2.45500n      0.           0.           0.           0.           0.           0.       
    2.46000n      0.           0.           0.           0.           0.           0.       
    2.46500n      0.           0.           0.           0.           0.           0.       
    2.47000n      0.           0.           0.           0.           0.           0.       
    2.47500n      0.           0.           0.           0.           0.           0.       
    2.48000n      0.           0.           0.           0.           0.           0.       
    2.48500n      0.           0.           0.           0.           0.           0.       
    2.49000n      0.           0.           0.           0.           0.           0.       
    2.49500n      0.           0.           0.           0.           0.           0.       
    2.50000n      0.           0.           0.           0.           0.           0.       
    2.50500n      0.           0.           0.           0.           0.           0.       
    2.51000n      0.           0.           0.           0.           0.           0.       
    2.51500n      0.           0.           0.           0.           0.           0.       
    2.52000n      0.           0.           0.           0.           0.           0.       
    2.52500n      0.           0.           0.           0.           0.           0.       
    2.53000n      0.           0.           0.           0.           0.           0.       
    2.53500n      0.           0.           0.           0.           0.           0.       
    2.54000n      0.           0.           0.           0.           0.           0.       
    2.54500n      0.           0.           0.           0.           0.           0.       
    2.55000n      0.           0.           0.           0.           0.           0.       
    2.55500n      0.           0.           0.           0.           0.           0.       
    2.56000n      0.           0.           0.           0.           0.           0.       
    2.56500n      0.           0.           0.           0.           0.           0.       
    2.57000n      0.           0.           0.           0.           0.           0.       
    2.57500n      0.           0.           0.           0.           0.           0.       
    2.58000n      0.           0.           0.           0.           0.           0.       
    2.58500n      0.           0.           0.           0.           0.           0.       
    2.59000n      0.           0.           0.           0.           0.           0.       
    2.59500n      0.           0.           0.           0.           0.           0.       
    2.60000n      0.           0.           0.           0.           0.           0.       
    2.60500n      0.           0.           0.           0.           0.           0.       
    2.61000n      0.           0.           0.           0.           0.           0.       
    2.61500n      0.           0.           0.           0.           0.           0.       
    2.62000n      0.           0.           0.           0.           0.           0.       
    2.62500n      0.           0.           0.           0.           0.           0.       
    2.63000n      0.           0.           0.           0.           0.           0.       
    2.63500n      0.           0.           0.           0.           0.           0.       
    2.64000n      0.           0.           0.           0.           0.           0.       
    2.64500n      0.           0.           0.           0.           0.           0.       
    2.65000n      0.           0.           0.           0.           0.           0.       
    2.65500n      0.           0.           0.           0.           0.           0.       
    2.66000n      0.           0.           0.           0.           0.           0.       
    2.66500n      0.           0.           0.           0.           0.           0.       
    2.67000n      0.           0.           0.           0.           0.           0.       
    2.67500n      0.           0.           0.           0.           0.           0.       
    2.68000n      0.           0.           0.           0.           0.           0.       
    2.68500n      0.           0.           0.           0.           0.           0.       
    2.69000n      0.           0.           0.           0.           0.           0.       
    2.69500n      0.           0.           0.           0.           0.           0.       
    2.70000n      0.           0.           0.           0.           0.           0.       
    2.70500n      0.           0.           0.           0.           0.           0.       
    2.71000n      0.           0.           0.           0.           0.           0.       
    2.71500n      0.           0.           0.           0.           0.           0.       
    2.72000n      0.           0.           0.           0.           0.           0.       
    2.72500n      0.           0.           0.           0.           0.           0.       
    2.73000n      0.           0.           0.           0.           0.           0.       
    2.73500n      0.           0.           0.           0.           0.           0.       
    2.74000n      0.           0.           0.           0.           0.           0.       
    2.74500n      0.           0.           0.           0.           0.           0.       
    2.75000n      0.           0.           0.           0.           0.           0.       
    2.75500n      0.           0.           0.           0.           0.           0.       
    2.76000n      0.           0.           0.           0.           0.           0.       
    2.76500n      0.           0.           0.           0.           0.           0.       
    2.77000n      0.           0.           0.           0.           0.           0.       
    2.77500n      0.           0.           0.           0.           0.           0.       
    2.78000n      0.           0.           0.           0.           0.           0.       
    2.78500n      0.           0.           0.           0.           0.           0.       
    2.79000n      0.           0.           0.           0.           0.           0.       
    2.79500n      0.           0.           0.           0.           0.           0.       
    2.80000n      0.           0.           0.           0.           0.           0.       
    2.80500n      0.           0.           0.           0.           0.           0.       
    2.81000n      0.           0.           0.           0.           0.           0.       
    2.81500n      0.           0.           0.           0.           0.           0.       
    2.82000n      0.           0.           0.           0.           0.           0.       
    2.82500n      0.           0.           0.           0.           0.           0.       
    2.83000n      0.           0.           0.           0.           0.           0.       
    2.83500n      0.           0.           0.           0.           0.           0.       
    2.84000n      0.           0.           0.           0.           0.           0.       
    2.84500n      0.           0.           0.           0.           0.           0.       
    2.85000n      0.           0.           0.           0.           0.           0.       
    2.85500n      0.           0.           0.           0.           0.           0.       
    2.86000n      0.           0.           0.           0.           0.           0.       
    2.86500n      0.           0.           0.           0.           0.           0.       
    2.87000n      0.           0.           0.           0.           0.           0.       
    2.87500n      0.           0.           0.           0.           0.           0.       
    2.88000n      0.           0.           0.           0.           0.           0.       
    2.88500n      0.           0.           0.           0.           0.           0.       
    2.89000n      0.           0.           0.           0.           0.           0.       
    2.89500n      0.           0.           0.           0.           0.           0.       
    2.90000n      0.           0.           0.           0.           0.           0.       
    2.90500n      0.           0.           0.           0.           0.           0.       
    2.91000n      0.           0.           0.           0.           0.           0.       
    2.91500n      0.           0.           0.           0.           0.           0.       
    2.92000n      0.           0.           0.           0.           0.           0.       
    2.92500n      0.           0.           0.           0.           0.           0.       
    2.93000n      0.           0.           0.           0.           0.           0.       
    2.93500n      0.           0.           0.           0.           0.           0.       
    2.94000n      0.           0.           0.           0.           0.           0.       
    2.94500n      0.           0.           0.           0.           0.           0.       
    2.95000n      0.           0.           0.           0.           0.           0.       
    2.95500n      0.           0.           0.           0.           0.           0.       
    2.96000n      0.           0.           0.           0.           0.           0.       
    2.96500n      0.           0.           0.           0.           0.           0.       
    2.97000n      0.           0.           0.           0.           0.           0.       
    2.97500n      0.           0.           0.           0.           0.           0.       
    2.98000n      0.           0.           0.           0.           0.           0.       
    2.98500n      0.           0.           0.           0.           0.           0.       
    2.99000n      0.           0.           0.           0.           0.           0.       
    2.99500n      0.           0.           0.           0.           0.           0.       
    3.00000n      0.           0.           0.           0.           0.           0.       
    3.00500n      0.           0.           0.           0.           0.           0.       
    3.01000n      0.           0.           0.           0.           0.           0.       
    3.01500n      0.           0.           0.           0.           0.           0.       
    3.02000n      0.           0.           0.           0.           0.           0.       
    3.02500n      0.           0.           0.           0.           0.           0.       
    3.03000n      0.           0.           0.           0.           0.           0.       
    3.03500n      0.           0.           0.           0.           0.           0.       
    3.04000n      0.           0.           0.           0.           0.           0.       
    3.04500n      0.           0.           0.           0.           0.           0.       
    3.05000n      0.           0.           0.           0.           0.           0.       
    3.05500n      0.           0.           0.           0.           0.           0.       
    3.06000n      0.           0.           0.           0.           0.           0.       
    3.06500n      0.           0.           0.           0.           0.           0.       
    3.07000n      0.           0.           0.           0.           0.           0.       
    3.07500n      0.           0.           0.           0.           0.           0.       
    3.08000n      0.           0.           0.           0.           0.           0.       
    3.08500n      0.           0.           0.           0.           0.           0.       
    3.09000n      0.           0.           0.           0.           0.           0.       
    3.09500n      0.           0.           0.           0.           0.           0.       
    3.10000n      0.           0.           0.           0.           0.           0.       
    3.10500n      0.           0.           0.           0.           0.           0.       
    3.11000n      0.           0.           0.           0.           0.           0.       
    3.11500n      0.           0.           0.           0.           0.           0.       
    3.12000n      0.           0.           0.           0.           0.           0.       
    3.12500n      0.           0.           0.           0.           0.           0.       
    3.13000n      0.           0.           0.           0.           0.           0.       
    3.13500n      0.           0.           0.           0.           0.           0.       
    3.14000n      0.           0.           0.           0.           0.           0.       
    3.14500n      0.           0.           0.           0.           0.           0.       
    3.15000n      0.           0.           0.           0.           0.           0.       
    3.15500n      0.           0.           0.           0.           0.           0.       
    3.16000n      0.           0.           0.           0.           0.           0.       
    3.16500n      0.           0.           0.           0.           0.           0.       
    3.17000n      0.           0.           0.           0.           0.           0.       
    3.17500n      0.           0.           0.           0.           0.           0.       
    3.18000n      0.           0.           0.           0.           0.           0.       
    3.18500n      0.           0.           0.           0.           0.           0.       
    3.19000n      0.           0.           0.           0.           0.           0.       
    3.19500n      0.           0.           0.           0.           0.           0.       
    3.20000n      0.           0.           0.           0.           0.           0.       
    3.20500n      0.           0.           0.           0.           0.           0.       
    3.21000n      0.           0.           0.           0.           0.           0.       
    3.21500n      0.           0.           0.           0.           0.           0.       
    3.22000n      0.           0.           0.           0.           0.           0.       
    3.22500n      0.           0.           0.           0.           0.           0.       
    3.23000n      0.           0.           0.           0.           0.           0.       
    3.23500n      0.           0.           0.           0.           0.           0.       
    3.24000n      0.           0.           0.           0.           0.           0.       
    3.24500n      0.           0.           0.           0.           0.           0.       
    3.25000n      0.           0.           0.           0.           0.           0.       
    3.25500n      0.           0.           0.           0.           0.           0.       
    3.26000n      0.           0.           0.           0.           0.           0.       
    3.26500n      0.           0.           0.           0.           0.           0.       
    3.27000n      0.           0.           0.           0.           0.           0.       
    3.27500n      0.           0.           0.           0.           0.           0.       
    3.28000n      0.           0.           0.           0.           0.           0.       
    3.28500n      0.           0.           0.           0.           0.           0.       
    3.29000n      0.           0.           0.           0.           0.           0.       
    3.29500n      0.           0.           0.           0.           0.           0.       
    3.30000n      0.           0.           0.           0.           0.           0.       
    3.30500n      0.           0.           0.           0.           0.           0.       
    3.31000n      0.           0.           0.           0.           0.           0.       
    3.31500n      0.           0.           0.           0.           0.           0.       
    3.32000n      0.           0.           0.           0.           0.           0.       
    3.32500n      0.           0.           0.           0.           0.           0.       
    3.33000n      0.           0.           0.           0.           0.           0.       
    3.33500n      0.           0.           0.           0.           0.           0.       
    3.34000n      0.           0.           0.           0.           0.           0.       
    3.34500n      0.           0.           0.           0.           0.           0.       
    3.35000n      0.           0.           0.           0.           0.           0.       
    3.35500n      0.           0.           0.           0.           0.           0.       
    3.36000n      0.           0.           0.           0.           0.           0.       
    3.36500n      0.           0.           0.           0.           0.           0.       
    3.37000n      0.           0.           0.           0.           0.           0.       
    3.37500n      0.           0.           0.           0.           0.           0.       
    3.38000n      0.           0.           0.           0.           0.           0.       
    3.38500n      0.           0.           0.           0.           0.           0.       
    3.39000n      0.           0.           0.           0.           0.           0.       
    3.39500n      0.           0.           0.           0.           0.           0.       
    3.40000n      0.           0.           0.           0.           0.           0.       
    3.40500n      0.           0.           0.           0.           0.           0.       
    3.41000n      0.           0.           0.           0.           0.           0.       
    3.41500n      0.           0.           0.           0.           0.           0.       
    3.42000n      0.           0.           0.           0.           0.           0.       
    3.42500n      0.           0.           0.           0.           0.           0.       
    3.43000n      0.           0.           0.           0.           0.           0.       
    3.43500n      0.           0.           0.           0.           0.           0.       
    3.44000n      0.           0.           0.           0.           0.           0.       
    3.44500n      0.           0.           0.           0.           0.           0.       
    3.45000n      0.           0.           0.           0.           0.           0.       
    3.45500n      0.           0.           0.           0.           0.           0.       
    3.46000n      0.           0.           0.           0.           0.           0.       
    3.46500n      0.           0.           0.           0.           0.           0.       
    3.47000n      0.           0.           0.           0.           0.           0.       
    3.47500n      0.           0.           0.           0.           0.           0.       
    3.48000n      0.           0.           0.           0.           0.           0.       
    3.48500n      0.           0.           0.           0.           0.           0.       
    3.49000n      0.           0.           0.           0.           0.           0.       
    3.49500n      0.           0.           0.           0.           0.           0.       
    3.50000n      0.           0.           0.           0.           0.           0.       
    3.50500n      0.           0.           0.           0.           0.           0.       
    3.51000n      0.           0.           0.           0.           0.           0.       
    3.51500n      0.           0.           0.           0.           0.           0.       
    3.52000n      0.           0.           0.           0.           0.           0.       
    3.52500n      0.           0.           0.           0.           0.           0.       
    3.53000n      0.           0.           0.           0.           0.           0.       
    3.53500n      0.           0.           0.           0.           0.           0.       
    3.54000n      0.           0.           0.           0.           0.           0.       
    3.54500n      0.           0.           0.           0.           0.           0.       
    3.55000n      0.           0.           0.           0.           0.           0.       
    3.55500n      0.           0.           0.           0.           0.           0.       
    3.56000n      0.           0.           0.           0.           0.           0.       
    3.56500n      0.           0.           0.           0.           0.           0.       
    3.57000n      0.           0.           0.           0.           0.           0.       
    3.57500n      0.           0.           0.           0.           0.           0.       
    3.58000n      0.           0.           0.           0.           0.           0.       
    3.58500n      0.           0.           0.           0.           0.           0.       
    3.59000n      0.           0.           0.           0.           0.           0.       
    3.59500n      0.           0.           0.           0.           0.           0.       
    3.60000n      0.           0.           0.           0.           0.           0.       
    3.60500n      0.           0.           0.           0.           0.           0.       
    3.61000n      0.           0.           0.           0.           0.           0.       
    3.61500n      0.           0.           0.           0.           0.           0.       
    3.62000n      0.           0.           0.           0.           0.           0.       
    3.62500n      0.           0.           0.           0.           0.           0.       
    3.63000n      0.           0.           0.           0.           0.           0.       
    3.63500n      0.           0.           0.           0.           0.           0.       
    3.64000n      0.           0.           0.           0.           0.           0.       
    3.64500n      0.           0.           0.           0.           0.           0.       
    3.65000n      0.           0.           0.           0.           0.           0.       
    3.65500n      0.           0.           0.           0.           0.           0.       
    3.66000n      0.           0.           0.           0.           0.           0.       
    3.66500n      0.           0.           0.           0.           0.           0.       
    3.67000n      0.           0.           0.           0.           0.           0.       
    3.67500n      0.           0.           0.           0.           0.           0.       
    3.68000n      0.           0.           0.           0.           0.           0.       
    3.68500n      0.           0.           0.           0.           0.           0.       
    3.69000n      0.           0.           0.           0.           0.           0.       
    3.69500n      0.           0.           0.           0.           0.           0.       
    3.70000n      0.           0.           0.           0.           0.           0.       
    3.70500n      0.           0.           0.           0.           0.           0.       
    3.71000n      0.           0.           0.           0.           0.           0.       
    3.71500n      0.           0.           0.           0.           0.           0.       
    3.72000n      0.           0.           0.           0.           0.           0.       
    3.72500n      0.           0.           0.           0.           0.           0.       
    3.73000n      0.           0.           0.           0.           0.           0.       
    3.73500n      0.           0.           0.           0.           0.           0.       
    3.74000n      0.           0.           0.           0.           0.           0.       
    3.74500n      0.           0.           0.           0.           0.           0.       
    3.75000n      0.           0.           0.           0.           0.           0.       
    3.75500n      0.           0.           0.           0.           0.           0.       
    3.76000n      0.           0.           0.           0.           0.           0.       
    3.76500n      0.           0.           0.           0.           0.           0.       
    3.77000n      0.           0.           0.           0.           0.           0.       
    3.77500n      0.           0.           0.           0.           0.           0.       
    3.78000n      0.           0.           0.           0.           0.           0.       
    3.78500n      0.           0.           0.           0.           0.           0.       
    3.79000n      0.           0.           0.           0.           0.           0.       
    3.79500n      0.           0.           0.           0.           0.           0.       
    3.80000n      0.           0.           0.           0.           0.           0.       
    3.80500n      0.           0.           0.           0.           0.           0.       
    3.81000n      0.           0.           0.           0.           0.           0.       
    3.81500n      0.           0.           0.           0.           0.           0.       
    3.82000n      0.           0.           0.           0.           0.           0.       
    3.82500n      0.           0.           0.           0.           0.           0.       
    3.83000n      0.           0.           0.           0.           0.           0.       
    3.83500n      0.           0.           0.           0.           0.           0.       
    3.84000n      0.           0.           0.           0.           0.           0.       
    3.84500n      0.           0.           0.           0.           0.           0.       
    3.85000n      0.           0.           0.           0.           0.           0.       
    3.85500n      0.           0.           0.           0.           0.           0.       
    3.86000n      0.           0.           0.           0.           0.           0.       
    3.86500n      0.           0.           0.           0.           0.           0.       
    3.87000n      0.           0.           0.           0.           0.           0.       
    3.87500n      0.           0.           0.           0.           0.           0.       
    3.88000n      0.           0.           0.           0.           0.           0.       
    3.88500n      0.           0.           0.           0.           0.           0.       
    3.89000n      0.           0.           0.           0.           0.           0.       
    3.89500n      0.           0.           0.           0.           0.           0.       
    3.90000n      0.           0.           0.           0.           0.           0.       
    3.90500n      0.           0.           0.           0.           0.           0.       
    3.91000n      0.           0.           0.           0.           0.           0.       
    3.91500n      0.           0.           0.           0.           0.           0.       
    3.92000n      0.           0.           0.           0.           0.           0.       
    3.92500n      0.           0.           0.           0.           0.           0.       
    3.93000n      0.           0.           0.           0.           0.           0.       
    3.93500n      0.           0.           0.           0.           0.           0.       
    3.94000n      0.           0.           0.           0.           0.           0.       
    3.94500n      0.           0.           0.           0.           0.           0.       
    3.95000n      0.           0.           0.           0.           0.           0.       
    3.95500n      0.           0.           0.           0.           0.           0.       
    3.96000n      0.           0.           0.           0.           0.           0.       
    3.96500n      0.           0.           0.           0.           0.           0.       
    3.97000n      0.           0.           0.           0.           0.           0.       
    3.97500n      0.           0.           0.           0.           0.           0.       
    3.98000n      0.           0.           0.           0.           0.           0.       
    3.98500n      0.           0.           0.           0.           0.           0.       
    3.99000n      0.           0.           0.           0.           0.           0.       
    3.99500n      0.           0.           0.           0.           0.           0.       
    4.00000n      0.           0.           0.           0.           0.           0.       
    4.00500n      0.           0.           0.           0.           0.           0.       
    4.01000n      0.           0.           0.           0.           0.           0.       
    4.01500n      0.           0.           0.           0.           0.           0.       
    4.02000n      0.           0.           0.           0.           0.           0.       
    4.02500n      0.           0.           0.           0.           0.           0.       
    4.03000n      0.           0.           0.           0.           0.           0.       
    4.03500n      0.           0.           0.           0.           0.           0.       
    4.04000n      0.           0.           0.           0.           0.           0.       
    4.04500n      0.           0.           0.           0.           0.           0.       
    4.05000n      0.           0.           0.           0.           0.           0.       
    4.05500n      0.           0.           0.           0.           0.           0.       
    4.06000n      0.           0.           0.           0.           0.           0.       
    4.06500n      0.           0.           0.           0.           0.           0.       
    4.07000n      0.           0.           0.           0.           0.           0.       
    4.07500n      0.           0.           0.           0.           0.           0.       
    4.08000n      0.           0.           0.           0.           0.           0.       
    4.08500n      0.           0.           0.           0.           0.           0.       
    4.09000n      0.           0.           0.           0.           0.           0.       
    4.09500n      0.           0.           0.           0.           0.           0.       
    4.10000n      0.           0.           0.           0.           0.           0.       
    4.10500n      0.           0.           0.           0.           0.           0.       
    4.11000n      0.           0.           0.           0.           0.           0.       
    4.11500n      0.           0.           0.           0.           0.           0.       
    4.12000n      0.           0.           0.           0.           0.           0.       
    4.12500n      0.           0.           0.           0.           0.           0.       
    4.13000n      0.           0.           0.           0.           0.           0.       
    4.13500n      0.           0.           0.           0.           0.           0.       
    4.14000n      0.           0.           0.           0.           0.           0.       
    4.14500n      0.           0.           0.           0.           0.           0.       
    4.15000n      0.           0.           0.           0.           0.           0.       
    4.15500n      0.           0.           0.           0.           0.           0.       
    4.16000n      0.           0.           0.           0.           0.           0.       
    4.16500n      0.           0.           0.           0.           0.           0.       
    4.17000n      0.           0.           0.           0.           0.           0.       
[...]
   39.04000n     -1.1550m     -1.0336m      1.6242m      0.           0.           0.       
   39.04500n     -1.0869m   -982.7968u      1.5822m      0.           0.           0.       
   39.05000n     -1.0187m   -932.0354u      1.5403m      0.           0.           0.       
   39.05500n   -950.3110u   -880.6303u      1.4932m      0.           0.           0.       
   39.06000n   -881.8517u   -829.1092u      1.4453m      0.           0.           0.       
   39.06500n   -813.3925u   -777.5880u      1.3973m      0.           0.           0.       
   39.07000n   -744.9332u   -726.0669u      1.3493m      0.           0.           0.       
   39.07500n   -676.4740u   -674.5458u      1.3013m      0.           0.           0.       
   39.08000n   -608.0147u   -623.0246u      1.2534m      0.           0.           0.       
   39.08500n   -539.5555u   -571.5035u      1.2054m      0.           0.           0.       
   39.09000n   -471.0962u   -519.9823u      1.1574m      0.           0.           0.       
   39.09500n   -402.6370u   -468.4612u      1.1094m      0.           0.           0.       
   39.10000n   -334.1777u   -416.9401u      1.0615m      0.           0.           0.       
   39.10500n   -267.5202u   -366.4905u      1.0097m      0.           0.           0.       
   39.11000n   -201.1876u   -316.2342u    957.2276u      0.           0.           0.       
   39.11500n   -134.8551u   -265.9779u    904.7628u      0.           0.           0.       
   39.12000n    -68.5226u   -215.7216u    852.2980u      0.           0.           0.       
   39.12500n     -2.1900u   -165.4654u    799.8332u      0.           0.           0.       
   39.13000n     64.1425u   -115.2091u    747.3685u      0.           0.           0.       
   39.13500n    130.4750u    -64.9528u    694.9037u      0.           0.           0.       
   39.14000n    196.8075u    -14.6965u    642.4389u      0.           0.           0.       
   39.14500n    263.1401u     35.5597u    589.9741u      0.           0.           0.       
   39.15000n    329.4726u     85.8160u    537.5093u      0.           0.           0.       
   39.15500n    392.0611u    133.3484u    482.8356u      0.           0.           0.       
   39.16000n    453.9742u    180.3894u    427.7633u      0.           0.           0.       
   39.16500n    515.8873u    227.4303u    372.6910u      0.           0.           0.       
   39.17000n    577.8004u    274.4713u    317.6187u      0.           0.           0.       
   39.17500n    639.7134u    321.5123u    262.5464u      0.           0.           0.       
   39.18000n    701.6265u    368.5532u    207.4741u      0.           0.           0.       
   39.18500n    763.5396u    415.5942u    152.4019u      0.           0.           0.       
   39.19000n    825.4527u    462.6351u     97.3296u      0.           0.           0.       
   39.19500n    887.3657u    509.6761u     42.2573u      0.           0.           0.       
   39.20000n    949.2788u    556.7170u    -12.8150u      0.           0.           0.       
   39.20500n      1.0057m    599.5383u    -68.3350u      0.           0.           0.       
   39.21000n      1.0611m    641.5983u   -123.9358u      0.           0.           0.       
   39.21500n      1.1165m    683.6583u   -179.5366u      0.           0.           0.       
   39.22000n      1.1719m    725.7182u   -235.1374u      0.           0.           0.       
   39.22500n      1.2274m    767.7782u   -290.7382u      0.           0.           0.       
   39.23000n      1.2828m    809.8382u   -346.3390u      0.           0.           0.       
   39.23500n      1.3382m    851.8981u   -401.9398u      0.           0.           0.       
   39.24000n      1.3936m    893.9581u   -457.5406u      0.           0.           0.       
   39.24500n      1.4490m    936.0181u   -513.1415u      0.           0.           0.       
   39.25000n      1.5044m    978.0780u   -568.7423u      0.           0.           0.       
   39.25500n      1.5565m      1.0163m   -624.2094u      0.           0.           0.       
   39.26000n      1.6070m      1.0535m   -679.3398u      0.           0.           0.       
   39.26500n      1.6552m      1.0894m   -733.6336u      0.           0.           0.       
   39.27000n      1.7033m      1.1253m   -787.9274u      0.           0.           0.       
   39.27500n      1.7514m      1.1612m   -842.2212u      0.           0.           0.       
   39.28000n      1.7996m      1.1971m   -896.5150u      0.           0.           0.       
   39.28500n      1.8466m      1.2322m   -950.4753u      0.           0.           0.       
   39.29000n      1.8901m      1.2647m     -1.0033m      0.           0.           0.       
   39.29500n      1.9335m      1.2972m     -1.0562m      0.           0.           0.       
   39.30000n      1.9770m      1.3297m     -1.1090m      0.           0.           0.       
   39.30500n      2.0205m      1.3622m     -1.1619m      0.           0.           0.       
   39.31000n      2.0618m      1.3932m     -1.2138m      0.           0.           0.       
   39.31500n      2.0974m      1.4199m     -1.2632m      0.           0.           0.       
   39.32000n      2.1330m      1.4467m     -1.3126m      0.           0.           0.       
   39.32500n      2.1686m      1.4734m     -1.3619m      0.           0.           0.       
   39.33000n      2.2042m      1.5001m     -1.4113m      0.           0.           0.       
   39.33500n      2.2398m      1.5269m     -1.4607m      0.           0.           0.       
   39.34000n      2.2753m      1.5536m     -1.5101m      0.           0.           0.       
   39.34500n      2.3109m      1.5804m     -1.5595m      0.           0.           0.       
   39.35000n      2.3465m      1.6071m     -1.6088m      0.           0.           0.       
   39.35500n      2.3821m      1.6339m     -1.6582m      0.           0.           0.       
   39.36000n      2.4148m      1.6582m     -1.7062m      0.           0.           0.       
   39.36500n      2.4398m      1.6760m     -1.7505m      0.           0.           0.       
   39.37000n      2.4647m      1.6937m     -1.7947m      0.           0.           0.       
   39.37500n      2.4897m      1.7115m     -1.8389m      0.           0.           0.       
   39.38000n      2.5146m      1.7293m     -1.8832m      0.           0.           0.       
   39.38500n      2.5396m      1.7471m     -1.9274m      0.           0.           0.       
   39.39000n      2.5645m      1.7649m     -1.9717m      0.           0.           0.       
   39.39500n      2.5895m      1.7827m     -2.0159m      0.           0.           0.       
   39.40000n      2.6144m      1.8005m     -2.0602m      0.           0.           0.       
   39.40500n      2.6394m      1.8183m     -2.1044m      0.           0.           0.       
   39.41000n      2.6613m      1.8336m     -2.1466m      0.           0.           0.       
   39.41500n      2.6749m      1.8422m     -2.1835m      0.           0.           0.       
   39.42000n      2.6886m      1.8509m     -2.2203m      0.           0.           0.       
   39.42500n      2.7023m      1.8595m     -2.2572m      0.           0.           0.       
   39.43000n      2.7159m      1.8682m     -2.2940m      0.           0.           0.       
   39.43500n      2.7296m      1.8768m     -2.3309m      0.           0.           0.       
   39.44000n      2.7433m      1.8855m     -2.3677m      0.           0.           0.       
   39.44500n      2.7569m      1.8941m     -2.4046m      0.           0.           0.       
   39.45000n      2.7706m      1.9028m     -2.4414m      0.           0.           0.       
   39.45500n      2.7843m      1.9114m     -2.4783m      0.           0.           0.       
   39.46000n      2.7948m      1.9175m     -2.5128m      0.           0.           0.       
   39.46500n      2.7971m      1.9169m     -2.5410m      0.           0.           0.       
   39.47000n      2.7993m      1.9163m     -2.5692m      0.           0.           0.       
   39.47500n      2.8016m      1.9157m     -2.5974m      0.           0.           0.       
   39.48000n      2.8038m      1.9150m     -2.6256m      0.           0.           0.       
   39.48500n      2.8060m      1.9144m     -2.6538m      0.           0.           0.       
   39.49000n      2.8083m      1.9138m     -2.6820m      0.           0.           0.       
   39.49500n      2.8105m      1.9132m     -2.7103m      0.           0.           0.       
   39.50000n      2.8128m      1.9126m     -2.7385m      0.           0.           0.       
   39.50500n      2.8150m      1.9120m     -2.7667m      0.           0.           0.       
   39.51000n      2.8143m      1.9089m     -2.7923m      0.           0.           0.       
   39.51500n      2.8055m      1.8995m     -2.8109m      0.           0.           0.       
   39.52000n      2.7968m      1.8900m     -2.8296m      0.           0.           0.       
   39.52500n      2.7880m      1.8806m     -2.8482m      0.           0.           0.       
   39.53000n      2.7792m      1.8712m     -2.8668m      0.           0.           0.       
   39.53500n      2.7705m      1.8617m     -2.8855m      0.           0.           0.       
   39.54000n      2.7617m      1.8523m     -2.9041m      0.           0.           0.       
   39.54500n      2.7529m      1.8428m     -2.9228m      0.           0.           0.       
   39.55000n      2.7442m      1.8334m     -2.9414m      0.           0.           0.       
   39.55500n      2.7354m      1.8239m     -2.9600m      0.           0.           0.       
   39.56000n      2.7239m      1.8123m     -2.9759m      0.           0.           0.       
   39.56500n      2.7049m      1.7948m     -2.9844m      0.           0.           0.       
   39.57000n      2.6860m      1.7773m     -2.9929m      0.           0.           0.       
   39.57500n      2.6671m      1.7598m     -3.0014m      0.           0.           0.       
   39.58000n      2.6481m      1.7423m     -3.0099m      0.           0.           0.       
   39.58500n      2.6292m      1.7248m     -3.0184m      0.           0.           0.       
   39.59000n      2.6102m      1.7073m     -3.0269m      0.           0.           0.       
   39.59500n      2.5913m      1.6898m     -3.0354m      0.           0.           0.       
   39.60000n      2.5724m      1.6723m     -3.0439m      0.           0.           0.       
   39.60500n      2.5534m      1.6548m     -3.0524m      0.           0.           0.       
   39.61000n      2.5333m      1.6366m     -3.0594m      0.           0.           0.       
   39.61500n      2.5101m      1.6163m     -3.0624m      0.           0.           0.       
   39.62000n      2.4868m      1.5960m     -3.0655m      0.           0.           0.       
   39.62500n      2.4612m      1.5736m     -3.0659m      0.           0.           0.       
   39.63000n      2.4306m      1.5471m     -3.0611m      0.           0.           0.       
   39.63500n      2.4001m      1.5205m     -3.0562m      0.           0.           0.       
   39.64000n      2.3695m      1.4939m     -3.0513m      0.           0.           0.       
   39.64500n      2.3390m      1.4673m     -3.0465m      0.           0.           0.       
   39.65000n      2.3084m      1.4408m     -3.0416m      0.           0.           0.       
   39.65500n      2.2779m      1.4142m     -3.0368m      0.           0.           0.       
   39.66000n      2.2473m      1.3876m     -3.0319m      0.           0.           0.       
   39.66500n      2.2168m      1.3610m     -3.0270m      0.           0.           0.       
   39.67000n      2.1863m      1.3344m     -3.0222m      0.           0.           0.       
   39.67500n      2.1496m      1.3034m     -3.0087m      0.           0.           0.       
   39.68000n      2.1125m      1.2721m     -2.9946m      0.           0.           0.       
   39.68500n      2.0754m      1.2407m     -2.9805m      0.           0.           0.       
   39.69000n      2.0383m      1.2093m     -2.9664m      0.           0.           0.       
   39.69500n      2.0012m      1.1780m     -2.9522m      0.           0.           0.       
   39.70000n      1.9641m      1.1466m     -2.9381m      0.           0.           0.       
   39.70500n      1.9270m      1.1153m     -2.9240m      0.           0.           0.       
   39.71000n      1.8899m      1.0839m     -2.9099m      0.           0.           0.       
   39.71500n      1.8528m      1.0525m     -2.8958m      0.           0.           0.       
   39.72000n      1.8157m      1.0212m     -2.8816m      0.           0.           0.       
   39.72500n      1.7738m    986.6397u     -2.8586m      0.           0.           0.       
   39.73000n      1.7315m    951.8514u     -2.8349m      0.           0.           0.       
   39.73500n      1.6892m    917.0632u     -2.8112m      0.           0.           0.       
   39.74000n      1.6470m    882.2749u     -2.7875m      0.           0.           0.       
   39.74500n      1.6047m    847.4867u     -2.7638m      0.           0.           0.       
   39.75000n      1.5625m    812.6984u     -2.7401m      0.           0.           0.       
   39.75500n      1.5202m    777.9102u     -2.7164m      0.           0.           0.       
   39.76000n      1.4780m    743.1220u     -2.6928m      0.           0.           0.       
   39.76500n      1.4357m    708.3337u     -2.6691m      0.           0.           0.       
   39.77000n      1.3934m    673.5455u     -2.6454m      0.           0.           0.       
   39.77500n      1.3481m    637.1255u     -2.6142m      0.           0.           0.       
   39.78000n      1.3026m    600.5802u     -2.5824m      0.           0.           0.       
   39.78500n      1.2570m    564.0349u     -2.5506m      0.           0.           0.       
   39.79000n      1.2115m    527.4896u     -2.5188m      0.           0.           0.       
   39.79500n      1.1659m    490.9442u     -2.4870m      0.           0.           0.       
   39.80000n      1.1204m    454.3989u     -2.4552m      0.           0.           0.       
   39.80500n      1.0748m    417.8536u     -2.4234m      0.           0.           0.       
   39.81000n      1.0292m    381.3083u     -2.3917m      0.           0.           0.       
   39.81500n    983.6968u    344.7630u     -2.3599m      0.           0.           0.       
   39.82000n    938.1438u    308.2176u     -2.3281m      0.           0.           0.       
   39.82500n    891.4284u    271.7496u     -2.2900m      0.           0.           0.       
   39.83000n    844.6238u    235.2876u     -2.2515m      0.           0.           0.       
   39.83500n    797.8191u    198.8255u     -2.2129m      0.           0.           0.       
   39.84000n    751.0144u    162.3635u     -2.1743m      0.           0.           0.       
   39.84500n    704.2097u    125.9014u     -2.1358m      0.           0.           0.       
   39.85000n    657.4051u     89.4393u     -2.0972m      0.           0.           0.       
   39.85500n    610.6004u     52.9773u     -2.0587m      0.           0.           0.       
   39.86000n    563.7957u     16.5152u     -2.0201m      0.           0.           0.       
   39.86500n    516.9910u    -19.9468u     -1.9815m      0.           0.           0.       
   39.87000n    470.1864u    -56.4089u     -1.9430m      0.           0.           0.       
   39.87500n    424.1047u    -91.0545u     -1.8996m      0.           0.           0.       
   39.88000n    378.0786u   -125.5605u     -1.8558m      0.           0.           0.       
   39.88500n    332.0524u   -160.0666u     -1.8120m      0.           0.           0.       
   39.89000n    286.0263u   -194.5726u     -1.7682m      0.           0.           0.       
   39.89500n    240.0002u   -229.0786u     -1.7244m      0.           0.           0.       
   39.90000n    193.9741u   -263.5847u     -1.6806m      0.           0.           0.       
   39.90500n    147.9479u   -298.0907u     -1.6368m      0.           0.           0.       
   39.91000n    101.9218u   -332.5968u     -1.5930m      0.           0.           0.       
   39.91500n     55.8957u   -367.1028u     -1.5493m      0.           0.           0.       
   39.92000n      9.8696u   -401.6088u     -1.5055m      0.           0.           0.       
   39.92500n    -33.6200u   -432.6870u     -1.4585m      0.           0.           0.       
   39.93000n    -76.9147u   -463.5017u     -1.4113m      0.           0.           0.       
   39.93500n   -120.2093u   -494.3164u     -1.3640m      0.           0.           0.       
   39.94000n   -163.5040u   -525.1311u     -1.3168m      0.           0.           0.       
   39.94500n   -206.7987u   -555.9458u     -1.2696m      0.           0.           0.       
   39.95000n   -250.0933u   -586.7605u     -1.2224m      0.           0.           0.       
   39.95500n   -293.3880u   -617.5752u     -1.1751m      0.           0.           0.       
   39.96000n   -336.6827u   -648.3899u     -1.1279m      0.           0.           0.       
   39.96500n   -379.9773u   -679.2046u     -1.0807m      0.           0.           0.       
   39.97000n   -423.2720u   -710.0193u     -1.0335m      0.           0.           0.       
   39.97500n   -463.1919u   -736.3008u   -984.9920u      0.           0.           0.       
   39.98000n   -502.8525u   -762.2338u   -936.4349u      0.           0.           0.       
   39.98500n   -542.5131u   -788.1669u   -887.8777u      0.           0.           0.       
   39.99000n   -582.1738u   -814.1000u   -839.3206u      0.           0.           0.       
   39.99500n   -621.8344u   -840.0330u   -790.7635u      0.           0.           0.       
   40.00000n   -661.4950u   -865.9661u   -742.2063u      0.           0.           0.       
y

          ***** job concluded
1****** HSPICE -- J-2014.09-SP1-2 64-BIT (Jan 29 2015) RHEL64 ******            
 ******  
 ******************** stl ver 2.3 t element basic model ********************

 ****** job statistics summary tnom=  25.000 temp=  25.000 ******
  
  
 ******  Machine Information  ******
 CPU:
 model name	: Intel(R) Xeon(R) CPU           W3520  @ 2.67GHz
 cpu MHz	: 2659.892
  
 OS:
 Linux version 3.10.0-327.18.2.el7.x86_64 (builder@kbuilder.dev.centos.org) (gcc version 4.8.3 20140911 (Red Hat 4.8.3-9) (GCC) ) #1 SMP Thu May 12 11:03:55 UTC 2016


  ******  HSPICE Threads Information  ******

  Command Line Threads Count :     1
  Available CPU Count        :     4
  Actual Threads Count       :     1


  ******  Circuit Statistics  ******
  # nodes       =      13 # elements   =      16
  # resistors   =       4 # capacitors =       2 # inductors   =       2
  # mutual_inds =       0 # vccs       =       0 # vcvs        =       0
  # cccs        =       0 # ccvs       =       0 # volt_srcs   =       2
  # curr_srcs   =       0 # diodes     =       0 # bjts        =       0
  # jfets       =       0 # mosfets    =       0 # U elements  =       0
  # T elements  =       3 # W elements =       3 # B elements  =       0
  # S elements  =       0 # P elements =       0 # va device   =       0
  # vector_srcs =       0 # N elements =       0


  ******  Runtime Statistics (seconds)  ******

  analysis           time    # points   tot. iter  conv.iter
  op point           0.00           1           4
  transient          0.04        8001        1788         894 rev=         8
  readin             0.00
  errchk             0.02
  setup              0.00
  output             0.02


           peak memory used        161.32 megabytes
           total cpu time            0.08 seconds
           total elapsed time        0.09 seconds
           job started at     21:27:58 07/30/2018
           job ended   at     21:27:59 07/30/2018


 lic: total license checkout elapse time:        0.00(s)
