 ****** HSPICE -- J-2014.09-SP1-2 64-BIT (Jan 29 2015) RHEL64 ******            
  Copyright (C) 2014 Synopsys, Inc. All Rights Reserved.                        
  Unpublished-rights reserved under US copyright laws.
  This program is protected by law and is subject to the
  terms and conditions of the license agreement from Synopsys.
  Use of this program is your acceptance to be bound by the
  license agreement. HSPICE is the trademark of Synopsys, Inc.
  Input File: /dev/shm/811972587.sp                                             
  Command line options: -C /dev/shm/811972587.sp -o /dev/shm/811972587
 Init: read install configuration file: /usr/synopsys/J-2014.09-SP1-2/hspice/meta.cfg

 **warning** It is recommended that you set start explicitly:
             .TRAN tstep tstop START=val


  **info** (/dev/shm/811972587.sp:11) DC voltage reset to initial transient source value              in source        0:vs1                 new dc=  0.0000D+00
  
      
 *****************************************************************
 ******  option summary
 ******
 runlvl  = 3         bypass  = 2         

 **info** rebuilding matrix with pivot option

 **info** dc convergence successful at Newton-Raphson method 
1****** HSPICE -- J-2014.09-SP1-2 64-BIT (Jan 29 2015) RHEL64 ******            
 ******  
 ﻿******************** stl ver 2.3 t element basic model ********************

 ****** operating point information tnom=  25.000 temp=  25.000 ******
 ****** operating point status is voltage   simulation time is     0.     
    node    =voltage      node    =voltage      node    =voltage      node    =voltage      node    =voltage

 +0:101     =   0.      0:102     =   0.      0:103     =   0.      0:104     =   0.      0:1001    =   0.     
 +0:1002    =   0.      0:2000    =   0.      0:2001    =   0.      0:2002    =   0.      0:2003    =   0.     
 +0:4000    =   0.      0:4001    =   0.      0:4002    =   0.      0:4003    =   0.      0:6000    =   0.     
 +0:6001    =   0.      0:6002    =   0.      0:6003    =   0.      0:optpt1  =   0.      0:optpt2  =   0.     
 +0:optpt3  =   0.      0:vspt1   =   0.      0:vspt2   =   0.      0:vspt3   =   0.     

 ******  
 ﻿******************** stl ver 2.3 t element basic model ********************

 ****** transient analysis tnom=  25.000 temp=  25.000 ******
x

        time    voltage      voltage      voltage      voltage      voltage      voltage    
                  optpt1       optpt2       optpt3        vspt1        vspt2        vspt3   
   20.00000n    419.7444m    444.1746m    115.8813m      0.         807.0000m      0.       
   20.01000n    429.9887m    446.1312m    112.4914m      0.         857.0000m      0.       
   20.02000n    440.2821m    445.1676m    109.2082m      0.         907.0000m      0.       
   20.03000n    450.4827m    438.6661m    106.1025m      0.         936.6218m      0.       
   20.04000n    460.6435m    430.1732m    103.0598m      0.         958.2188m      0.       
   20.05000n    470.8043m    421.6802m    100.0171m      0.         979.8158m      0.       
   20.06000n    480.9419m    413.0114m     96.9867m      0.           1.0000       0.       
   20.07000n    490.7464m    401.8294m     94.1333m      0.           1.0000       0.       
   20.08000n    500.5509m    390.6474m     91.2799m      0.           1.0000       0.       
   20.09000n    509.9267m    379.3325m     88.6013m      0.           1.0000       0.       
   20.10000n    519.0392m    367.9359m     86.0300m      0.           1.0000       0.       
   20.11000n    528.1517m    356.5394m     83.4588m      0.           1.0000       0.       
   20.12000n    537.2642m    345.1428m     80.8876m      0.           1.0000       0.       
   20.13000n    546.3767m    333.7463m     78.3163m      0.           1.0000       0.       
   20.14000n    555.0748m    322.8699m     75.7908m      0.           1.0000       0.       
   20.15000n    562.5388m    313.9586m     73.4313m      0.           1.0000       0.       
   20.16000n    569.6976m    305.8116m     71.1327m      0.           1.0000       0.       
   20.17000n    576.8564m    297.6646m     68.8340m      0.           1.0000       0.       
   20.18000n    581.2174m    293.3052m     66.7589m      0.           1.0000       0.       
   20.19000n    585.5292m    289.0124m     64.6877m      0.           1.0000       0.       
   20.20000n    589.8410m    284.7196m     62.6164m      0.           1.0000       0.       
   20.21000n    594.1527m    280.4269m     60.5452m      0.           1.0000       0.       
   20.22000n    598.4645m    276.1341m     58.4740m      0.           1.0000       0.       
   20.23000n    602.7762m    271.8413m     56.4028m      0.           1.0000       0.       
   20.24000n    604.5805m    270.5246m     54.4687m      0.           1.0000       0.       
   20.25000n    605.7070m    270.0124m     52.5716m      0.           1.0000       0.       
   20.26000n    606.4881m    269.8347m     50.6903m      0.           1.0000       0.       
   20.27000n    605.7519m    271.1180m     48.8908m      0.           1.0000       0.       
   20.28000n    603.9888m    273.3772m     47.1644m      0.           1.0000       0.       
   20.29000n    602.2257m    275.6365m     45.4381m      0.           1.0000       0.       
   20.30000n    599.4364m    278.9383m     43.7805m      0.           1.0000       0.       
   20.31000n    594.8152m    284.1012m     42.2457m      0.           1.0000       0.       
   20.32000n    590.1941m    289.2640m     40.7110m      0.           1.0000       0.       
   20.33000n    585.5729m    294.4269m     39.1762m      0.           1.0000       0.       
   20.34000n    580.9518m    299.5897m     37.6414m      0.           1.0000       0.       
   20.35000n    576.3306m    304.7526m     36.1066m      0.           1.0000       0.       
   20.36000n    571.0633m    310.5748m     34.6101m      0.           1.0000       0.       
   20.37000n    564.0581m    318.1705m     33.2163m      0.           1.0000       0.       
   20.38000n    556.9450m    325.8826m     31.8316m      0.           1.0000       0.       
   20.39000n    548.0374m    335.5304m     30.5976m      0.           1.0000       0.       
   20.40000n    539.1299m    345.1781m     29.3635m      0.           1.0000       0.       
   20.41000n    530.2223m    354.8258m     28.1295m      0.           1.0000       0.       
   20.42000n    521.3147m    364.4735m     26.8955m      0.           1.0000       0.       
   20.43000n    512.4072m    374.1212m     25.6614m      0.           1.0000       0.       
   20.44000n    503.4996m    383.7689m     24.4274m      0.           1.0000       0.       
   20.45000n    493.8698m    394.2862m     23.2754m      0.           1.0000       0.       
   20.46000n    483.5286m    405.5804m     22.2297m      0.           1.0000       0.       
   20.47000n    473.1873m    416.8746m     21.1839m      0.           1.0000       0.       
   20.48000n    462.8205m    428.2045m     20.1494m      0.           1.0000       0.       
   20.49000n    452.0873m    440.0456m     19.2766m      0.           1.0000       0.       
   20.50000n    441.3542m    451.8866m     18.4038m      0.           1.0000       0.       
   20.51000n    430.6210m    463.7277m     17.5310m      0.           1.0000       0.       
   20.52000n    419.8879m    475.5687m     16.6582m      0.           1.0000       0.       
   20.53000n    409.1547m    487.4098m     15.7853m      0.           1.0000       0.       
   20.54000n    398.4216m    499.2509m     14.9125m      0.           1.0000       0.       
   20.55000n    387.9751m    511.0706m     14.1516m      0.           1.0000       0.       
   20.56000n    377.6235m    522.8832m     13.4277m      0.           1.0000       0.       
   20.57000n    367.2720m    534.6958m     12.7038m      0.           1.0000       0.       
   20.58000n    356.9029m    546.4816m     12.0454m      0.           1.0000       0.       
   20.59000n    346.5220m    558.2490m     11.4315m      0.           1.0000       0.       
   20.60000n    336.1411m    570.0165m     10.8177m      0.           1.0000       0.       
   20.61000n    326.1857m    581.4350m     10.2948m      0.           1.0000       0.       
   20.62000n    316.2681m    592.8225m      9.7800m      0.           1.0000       0.       
   20.63000n    306.3505m    604.2100m      9.2652m      0.           1.0000       0.       
   20.64000n    296.8523m    615.2620m      9.6989m      0.           1.0000       0.       
   20.65000n    287.5031m    626.1948m     10.4697m      0.           1.0000       0.       
   20.66000n    278.1540m    637.1276m     11.2405m      0.           1.0000       0.       
   20.67000n    269.1133m    647.8219m     13.6772m      0.           1.0000       0.       
   20.68000n    260.3194m    658.3253m     17.4466m      0.           1.0000       0.       
   20.69000n    251.9406m    668.4396m     23.5504m      0.           1.0000       0.       
   20.70000n    243.8791m    678.2565m     31.4373m      0.           1.0000       0.       
   20.71000n    235.8176m    688.0735m     39.3243m      0.           1.0000       0.       
   20.72000n    227.7561m    697.8904m     47.2112m      0.           1.0000       0.       
   20.73000n    220.5553m    706.9391m     61.8808m      0.           1.0000       5.3204m  
   20.74000n    213.7721m    715.6152m     79.8409m      0.           1.0000      13.2219m  
   20.75000n    206.9889m    724.2913m     97.8010m      0.           1.0000      21.1235m  
   20.76000n    200.2057m    732.9674m    115.7611m      0.           1.0000      29.0250m  
   20.77000n    193.4225m    741.6435m    133.7213m      0.           1.0000      36.9266m  
   20.78000n    186.6393m    750.3195m    151.6814m      0.           1.0000      44.8281m  
   20.79000n    179.9867m    758.8980m    170.2743m      0.           1.0000      55.7881m  
   20.80000n    174.6740m    766.4753m    195.3539m      0.           1.0000      98.1031m  
   20.81000n    169.3612m    774.0526m    220.4335m      0.           1.0000     140.4181m  
   20.82000n    164.0484m    781.6299m    245.5131m      0.           1.0000     182.7331m  
   20.83000n    158.9833m    788.7774m    269.3148m      0.           1.0000     228.7677m  
   20.84000n    154.0465m    795.7501m    292.2811m      0.           1.0000     276.0000m  
   20.85000n    149.8341m    801.9973m    309.5726m      0.           1.0000     326.0000m  
   20.86000n    145.6217m    808.2445m    326.8640m      0.           1.0000     376.0000m  
   20.87000n    141.4092m    814.4917m    344.1554m      0.           1.0000     426.0000m  
   20.88000n    137.1968m    820.7389m    361.4469m      0.           1.0000     476.0000m  
   20.89000n    132.9844m    826.9861m    378.7383m      0.           1.0000     526.0000m  
   20.90000n    129.4845m    832.5019m    388.2736m      0.           1.0000     575.9286m  
   20.91000n    126.4665m    837.5229m    392.5625m      0.           1.0000     625.8090m  
   20.92000n    123.4485m    842.5438m    396.8513m      0.           1.0000     675.6894m  
   20.93000n    120.4305m    847.5648m    401.1402m      0.           1.0000     725.5697m  
   20.94000n    117.4125m    852.5858m    405.4290m      0.           1.0000     775.4501m  
   20.95000n    114.3945m    857.6068m    409.7179m      0.           1.0000     825.3305m  
   20.96000n    111.3765m    862.6277m    414.0067m      0.           1.0000     875.2108m  
   20.97000n    108.4094m    867.6019m    417.6589m      0.           1.0000     923.2316m  
   20.98000n    106.1651m    871.9111m    412.2649m      0.           1.0000     944.8286m  
   20.99000n    103.9208m    876.2203m    406.8709m      0.           1.0000     966.4256m  
   21.00000n    101.6765m    880.5295m    401.4768m      0.           1.0000     988.0226m  
   21.01000n     99.9679m    884.3676m    392.6990m      0.           1.0000     991.9295m  
   21.02000n     98.2592m    888.2057m    383.9211m      0.           1.0000     995.8363m  
   21.03000n     96.5505m    892.0439m    375.1433m      0.           1.0000     999.7431m  
   21.04000n     94.9125m    895.6307m    366.1647m      0.           1.0000       1.0000   
   21.05000n     93.4195m    898.9775m    357.2257m      0.           1.0000       1.0000   
   21.06000n     91.9265m    902.3243m    348.2867m      0.           1.0000       1.0000   
   21.07000n     90.6684m    905.4134m    340.6403m      0.           1.0000       1.0000   
   21.08000n     89.5627m    908.3351m    333.8334m      0.           1.0000       1.0000   
   21.09000n     88.4571m    911.2568m    327.0265m      0.           1.0000       1.0000   
   21.10000n     87.3514m    914.1784m    320.2197m      0.           1.0000       1.0000   
   21.11000n     86.2458m    917.1001m    313.4128m      0.           1.0000       1.0000   
   21.12000n     85.1401m    920.0218m    306.6059m      0.           1.0000       1.0000   
   21.13000n     84.0345m    922.9435m    299.7990m      0.           1.0000       1.0000   
   21.14000n     83.1850m    925.6721m    294.7524m      0.           1.0000       1.0000   
   21.15000n     82.3859m    928.3626m    290.0515m      0.           1.0000       1.0000   
   21.16000n     81.7062m    930.8421m    287.7246m      0.           1.0000       1.0000   
   21.17000n     81.0279m    933.3189m    285.4276m      0.           1.0000       1.0000   
   21.18000n     80.3497m    935.7957m    283.1306m      0.           1.0000       1.0000   
   21.19000n     79.7532m    938.1806m    282.1550m      0.           1.0000       1.0000   
   21.20000n     79.1908m    940.5273m    281.7293m      0.           1.0000       1.0000   
   21.21000n     78.7276m    942.7745m    282.6904m      0.           1.0000       1.0000   
   21.22000n     78.2640m    945.0097m    283.8149m      0.           1.0000       1.0000   
   21.23000n     77.8204m    947.1893m    286.1131m      0.           1.0000       1.0000   
   21.24000n     77.3858m    949.3578m    288.7414m      0.           1.0000       1.0000   
   21.25000n     76.9883m    951.3648m    293.3512m      0.           1.0000       1.0000   
   21.26000n     76.5992m    953.3355m    298.4071m      0.           1.0000       1.0000   
   21.27000n     76.2100m    955.3061m    303.4630m      0.           1.0000       1.0000   
   21.28000n     75.8209m    957.2768m    308.5189m      0.           1.0000       1.0000   
   21.29000n     75.4317m    959.2475m    313.5748m      0.           1.0000       1.0000   
   21.30000n     75.0426m    961.2181m    318.6307m      0.           1.0000       1.0000   
   21.31000n     74.6855m    963.0704m    325.1720m      0.           1.0000       1.0000   
   21.32000n     74.3375m    964.8892m    332.1339m      0.           1.0000       1.0000   
   21.33000n     74.0046m    966.6441m    339.9265m      0.           1.0000       1.0000   
   21.34000n     73.6727m    968.3907m    347.8228m      0.           1.0000       1.0000   
   21.35000n     73.3278m    970.0881m    356.2776m      0.           1.0000       1.0000   
   21.36000n     72.9735m    971.7033m    365.4877m      0.           1.0000       1.0000   
   21.37000n     72.6192m    973.3185m    374.6978m      0.           1.0000       1.0000   
   21.38000n     72.2649m    974.9337m    383.9079m      0.           1.0000       1.0000   
   21.39000n     71.8931m    976.4226m    394.1563m      0.           1.0000       1.0000   
   21.40000n     71.5210m    977.9090m    404.4257m      0.           1.0000       1.0000   
   21.41000n     71.1489m    979.3953m    414.6951m      0.           1.0000       1.0000   
   21.42000n     70.7768m    980.8817m    424.9646m      0.           1.0000       1.0000   
   21.43000n     70.4028m    982.3578m    435.2868m      0.           1.0000       1.0000   
   21.44000n     70.0161m    983.7649m    445.9637m      0.           1.0000       1.0000   
   21.45000n     69.6003m    985.0915m    456.8723m      0.           1.0000       1.0000   
   21.46000n     69.1729m    986.3861m    467.8733m      0.           1.0000       1.0000   
   21.47000n     68.7454m    987.6806m    478.8743m      0.           1.0000       1.0000   
   21.48000n     68.3180m    988.9751m    489.8752m      0.           1.0000       1.0000   
   21.49000n     67.8871m    990.2444m    500.8986m      0.           1.0000       1.0000   
   21.50000n     67.4409m    991.4042m    512.0188m      0.           1.0000       1.0000   
   21.51000n     66.9947m    992.5640m    523.1391m      0.           1.0000       1.0000   
   21.52000n     66.5485m    993.7238m    534.2594m      0.           1.0000       1.0000   
   21.53000n     66.1023m    994.8836m    545.3796m      0.           1.0000       1.0000   
   21.54000n     66.2391m    995.8965m    556.1524m      0.           1.0000       1.0000   
   21.55000n     66.3979m    996.9038m    566.9121m      0.           1.0000       1.0000   
   21.56000n     66.5567m    997.9112m    577.6718m      0.           1.0000       1.0000   
   21.57000n     66.7155m    998.9185m    588.4315m      0.           1.0000       1.0000   
   21.58000n     69.5558m    999.8279m    598.8747m      0.           1.0000       1.0000   
   21.59000n     73.9048m      1.0007     609.1399m      0.           1.0000       1.0000   
   21.60000n     78.2537m      1.0015     619.4051m      0.           1.0000       1.0000   
   21.61000n     83.0142m      1.0024     629.6544m    591.1664u      1.0000       1.0000   
   21.62000n    107.5660m      1.0030     639.1390m     29.6114m      1.0000       1.0000   
   21.63000n    132.1178m      1.0036     648.6236m     58.6317m      1.0000       1.0000   
   21.64000n    156.6697m      1.0043     658.1082m     87.6520m      1.0000       1.0000   
   21.65000n    181.2215m      1.0049     667.5928m    116.6723m      1.0000       1.0000   
   21.66000n    206.0248m      1.0055     677.0636m    146.0000m      1.0000       1.0000   
   21.67000n    247.7406m      1.0056     685.6084m    196.0000m      1.0000       1.0000   
   21.68000n    289.4563m      1.0057     694.1531m    246.0000m      1.0000       1.0000   
   21.69000n    331.1721m      1.0058     702.6978m    296.0000m      1.0000       1.0000   
   21.70000n    372.8879m      1.0059     711.2426m    346.0000m      1.0000       1.0000   
   21.71000n    414.6037m      1.0060     719.7873m    396.0000m      1.0000       1.0000   
   21.72000n    453.3873m      1.0057     727.8377m    446.0000m      1.0000       1.0000   
   21.73000n    491.1897m      1.0048     735.6974m    496.0000m      1.0000       1.0000   
   21.74000n    526.3899m    999.6814m    742.8736m    546.0000m      1.0000       1.0000   
   21.75000n    561.5900m    994.5352m    750.0497m    596.0000m      1.0000       1.0000   
   21.76000n    596.7902m    989.3890m    757.2258m    646.0000m      1.0000       1.0000   
   21.77000n    631.9904m    984.2428m    764.4020m    696.0000m      1.0000       1.0000   
   21.78000n    662.6192m    974.3409m    771.2020m    746.0000m      1.0000       1.0000   
   21.79000n    685.6913m    956.5775m    777.3802m    796.0000m      1.0000       1.0000   
   21.80000n    708.7635m    938.8141m    783.5584m    846.0000m      1.0000       1.0000   
   21.81000n    731.8356m    921.0506m    789.7366m    896.0000m      1.0000       1.0000   
   21.82000n    754.9077m    903.2872m    795.9148m    946.0000m      1.0000       1.0000   
   21.83000n    776.6641m    885.1823m    802.0581m    993.6802m    998.2968m      1.0000   
   21.84000n    772.7487m    860.4139m    807.5204m    996.0966m    963.3619m      1.0000   
   21.85000n    768.8332m    835.6455m    812.9826m    998.5131m    928.4269m      1.0000   
   21.86000n    761.8970m    810.0096m    818.3162m      1.0000     888.2848m      1.0000   
   21.87000n    749.9641m    783.0645m    823.4105m      1.0000     839.7589m      1.0000   
   21.88000n    735.9490m    757.1175m    828.0825m      1.0000     790.5449m      1.0000   
   21.89000n    721.9339m    731.1705m    832.7545m      1.0000     741.3309m      1.0000   
   21.90000n    707.9189m    705.2235m    837.4265m      1.0000     692.1169m      1.0000   
   21.91000n    693.9038m    679.2764m    842.0985m      1.0000     642.9029m      1.0000   
   21.92000n    681.1894m    659.2476m    846.2960m      1.0000     593.0000m      1.0000   
   21.93000n    668.6582m    640.0524m    850.4265m      1.0000     543.0000m      1.0000   
   21.94000n    656.1271m    620.8573m    854.5571m      1.0000     493.0000m      1.0000   
   21.95000n    643.5959m    601.6621m    858.6876m      1.0000     443.0000m      1.0000   
   21.96000n    632.6121m    595.4148m    862.1624m      1.0000     393.0000m      1.0000   
   21.97000n    621.8953m    591.4019m    865.5241m      1.0000     343.0000m      1.0000   
   21.98000n    611.1785m    587.3890m    868.8858m      1.0000     293.0000m      1.0000   
   21.99000n    600.4617m    583.3761m    872.2475m      1.0000     243.0000m      1.0000   
   22.00000n    589.7450m    579.3632m    875.6092m      1.0000     193.0000m      1.0000   
   22.01000n    579.0282m    575.3503m    878.9708m      1.0000     143.0000m      1.0000   
   22.02000n    568.3114m    571.3374m    882.3325m      1.0000      93.0000m      1.0000   
   22.03000n    557.5946m    567.3244m    885.6942m      1.0000      43.0000m      1.0000   
   22.04000n    547.2293m    568.1244m    888.8564m      1.0000       9.1654m      1.0000   
   22.05000n    537.5630m    578.4941m    891.6220m      1.0000       7.4735m      1.0000   
   22.06000n    527.8967m    588.8638m    894.3875m      1.0000       5.7817m      1.0000   
   22.07000n    518.2304m    599.2335m    897.1531m      1.0000       4.0898m      1.0000   
   22.08000n    508.5641m    609.6032m    899.9187m      1.0000       2.3980m      1.0000   
   22.09000n    498.8978m    619.9729m    902.6843m      1.0000     706.1224u      1.0000   
   22.10000n    490.1113m    630.5293m    905.2332m      1.0000       0.           1.0000   
   22.11000n    481.9551m    641.2195m    907.6269m      1.0000       0.           1.0000   
   22.12000n    473.7989m    651.9098m    910.0207m      1.0000       0.           1.0000   
   22.13000n    465.6427m    662.6000m    912.4144m      1.0000       0.           1.0000   
   22.14000n    457.4865m    673.2902m    914.8081m      1.0000       0.           1.0000   
   22.15000n    449.3303m    683.9805m    917.2018m      1.0000       0.           1.0000   
   22.16000n    442.2894m    692.9630m    919.4839m      1.0000       0.           1.0000   
   22.17000n    437.2661m    698.8563m    921.5639m      1.0000       0.           1.0000   
   22.18000n    432.2429m    704.7496m    923.6440m      1.0000       0.           1.0000   
   22.19000n    427.2196m    710.6429m    925.7240m      1.0000       0.           1.0000   
   22.20000n    422.1964m    716.5362m    927.8040m      1.0000       0.           1.0000   
   22.21000n    417.1731m    722.4295m    929.8841m      1.0000       0.           1.0000   
   22.22000n    412.2926m    728.1496m    931.9562m      1.0000       0.           1.0000   
   22.23000n    410.7725m    729.7917m    933.8417m      1.0000       0.           1.0000   
   22.24000n    409.2524m    731.4337m    935.7272m      1.0000       0.           1.0000   
   22.25000n    407.7322m    733.0758m    937.6127m      1.0000       0.           1.0000   
   22.26000n    406.9238m    733.9245m    939.4559m      1.0000       0.           1.0000   
   22.27000n    407.3643m    733.3813m    941.2247m      1.0000       0.           1.0000   
   22.28000n    408.7260m    731.8761m    942.9462m      1.0000       0.           1.0000   
   22.29000n    412.3567m    728.0013m    944.5515m      1.0000       0.           1.0000   
   22.30000n    415.9874m    724.1264m    946.1568m      1.0000       0.           1.0000   
   22.31000n    419.6181m    720.2516m    947.7621m      1.0000       0.           1.0000   
   22.32000n    423.2488m    716.3767m    949.3674m      1.0000       0.           1.0000   
   22.33000n    426.8796m    712.5019m    950.9726m      1.0000       0.           1.0000   
   22.34000n    430.5103m    708.6270m    952.5779m      1.0000       0.           1.0000   
   22.35000n    436.6980m    702.0006m    954.0367m      1.0000       0.           1.0000   
   22.36000n    444.0888m    694.0795m    955.4265m      1.0000       0.           1.0000   
   22.37000n    451.4797m    686.1583m    956.8163m      1.0000       0.           1.0000   
   22.38000n    458.8705m    678.2371m    958.2062m      1.0000       0.           1.0000   
   22.39000n    466.2613m    670.3160m    959.5960m      1.0000       0.           1.0000   
   22.40000n    473.6522m    662.3948m    960.9859m      1.0000       0.           1.0000   
   22.41000n    481.0430m    654.4737m    962.3757m      1.0000       0.           1.0000   
   22.42000n    490.3451m    644.3214m    963.6171m      1.0000       0.           1.0000   
   22.43000n    499.9467m    633.8194m    964.8353m      1.0000       0.           1.0000   
   22.44000n    509.5482m    623.3175m    966.0534m      1.0000       0.           1.0000   
   22.45000n    519.1498m    612.8155m    967.2716m      1.0000       0.           1.0000   
   22.46000n    528.7514m    602.3136m    968.4897m      1.0000       0.           1.0000   
   22.47000n    538.7520m    590.9061m    969.5427m      1.0000       0.           1.0000   
   22.48000n    548.7547m    579.4939m    970.5949m      1.0000       0.           1.0000   
   22.49000n    558.7574m    568.0817m    971.6471m      1.0000       0.           1.0000   
   22.50000n    568.7601m    556.6695m    972.6992m      1.0000       0.           1.0000   
   22.51000n    578.8251m    545.1901m    973.7380m      1.0000       0.           1.0000   
   22.52000n    589.3254m    533.2411m    974.6830m      1.0000       0.           1.0000   
   22.53000n    599.8010m    521.2448m    975.5724m      1.0000       0.           1.0000   
   22.54000n    610.2371m    509.1732m    976.3734m      1.0000       0.           1.0000   
   22.55000n    620.6732m    497.1017m    977.1743m      1.0000       0.           1.0000   
   22.56000n    631.1094m    485.0301m    977.9753m      1.0000       0.           1.0000   
   22.57000n    641.5455m    472.9585m    978.7763m      1.0000       0.           1.0000   
   22.58000n    651.9816m    460.8869m    979.5773m      1.0000       0.           1.0000   
   22.59000n    661.8966m    449.1298m    980.1371m      1.0000       0.           1.0000   
   22.60000n    671.6980m    437.4411m    980.6443m      1.0000       0.           1.0000   
   22.61000n    681.4994m    425.7525m    981.1516m      1.0000       0.           1.0000   
   22.62000n    691.3008m    414.0638m    981.6588m      1.0000       0.           1.0000   
   22.63000n    701.1022m    402.3752m    982.1661m      1.0000       0.           1.0000   
   22.64000n    710.4824m    390.9369m    982.4940m      1.0000       0.           1.0000   
   22.65000n    719.4366m    379.8710m    980.5305m      1.0000       0.           1.0000   
   22.66000n    728.2227m    368.9559m    977.5951m      1.0000       0.           1.0000   
   22.67000n    737.0089m    358.0408m    974.6597m      1.0000       0.           1.0000   
   22.68000n    745.7951m    347.1257m    971.7243m      1.0000       0.           1.0000   
   22.69000n    754.1688m    336.5193m    967.4559m      1.0000       0.           1.0000   
   22.70000n    762.0019m    326.4153m    959.7939m      1.0000       0.           1.0000   
   22.71000n    769.7503m    316.3945m    951.5237m      1.0000       0.           1.0000   
   22.72000n    777.4986m    306.3738m    943.2536m      1.0000       0.           1.0000   
   22.73000n    784.4945m    297.0369m    928.3232m      1.0000       0.           1.0000   
   22.74000n    791.3322m    287.8439m    911.9924m      1.0000       0.           1.0000   
   22.75000n    798.1699m    278.6508m    895.6617m      1.0000       0.           1.0000   
   22.76000n    805.0076m    269.4577m    879.3309m      1.0000       0.           1.0000   
   22.77000n    811.1815m    260.8707m    859.9552m      1.0000       0.         982.0715m  
   22.78000n    816.7600m    252.8272m    837.8489m      1.0000       0.         948.0653m  
   22.79000n    822.3384m    244.7837m    815.7427m      1.0000       0.         914.0591m  
   22.80000n    827.9169m    236.7402m    793.6364m      1.0000       0.         880.0529m  
   22.81000n    833.4954m    228.6967m    771.5302m      1.0000       0.         846.0467m  
   22.82000n    839.0739m    220.6532m    749.4239m      1.0000       0.         812.0405m  
   22.83000n    844.1201m    213.1029m    728.5291m      1.0000       0.         771.7035m  
   22.84000n    848.3908m    206.2712m    709.3990m      1.0000       0.         722.1455m  
   22.85000n    852.6616m    199.4395m    690.2688m      1.0000       0.         672.5875m  
   22.86000n    856.9323m    192.6077m    671.1386m      1.0000       0.         623.0295m  
   22.87000n    861.2031m    185.7760m    652.0085m      1.0000       0.         573.4714m  
   22.88000n    865.4738m    178.9443m    632.8783m      1.0000       0.         523.9134m  
   22.89000n    869.2164m    172.5505m    617.2597m      1.0000       0.         474.0000m  
   22.90000n    872.6907m    166.4973m    604.8771m      1.0000       0.         424.0000m  
   22.91000n    875.7989m    160.8659m    597.0961m      1.0000       0.         374.0000m  
   22.92000n    878.8258m    155.3282m    590.3372m      1.0000       0.         324.0000m  
   22.93000n    881.8527m    149.7904m    583.5782m      1.0000       0.         274.0000m  
   22.94000n    884.5566m    144.6258m    580.9211m      1.0000       0.         229.6528m  
   22.95000n    886.8484m    139.9369m    583.4958m      1.0000       0.         192.5157m  
   22.96000n    889.1403m    135.2481m    586.0704m      1.0000       0.         155.3787m  
   22.97000n    891.4321m    130.5593m    588.6451m      1.0000       0.         118.2417m  
   22.98000n    893.7240m    125.8704m    591.2198m      1.0000       0.          81.1047m  
   22.99000n    896.0158m    121.1816m    593.7945m      1.0000       0.          43.9676m  
   23.00000n    898.3077m    116.4928m    596.3692m      1.0000       0.           6.8306m  
   23.01000n    900.0600m    112.2558m    603.8324m      1.0000       0.           5.1388m  
   23.02000n    901.7651m    108.2024m    611.6208m      1.0000       0.           3.4469m  
   23.03000n    903.3767m    104.2826m    619.7780m      1.0000       0.           1.7551m  
   23.04000n    904.8362m    100.5449m    629.1331m      1.0000       0.         917.2876u  
   23.05000n    906.2275m     96.8877m    639.0330m      1.0000       0.         546.9843u  
   23.06000n    907.6189m     93.2304m    648.9329m      1.0000       0.         176.6811u  
   23.07000n    908.8234m     89.6987m    658.0406m      1.0000       0.           0.       
   23.08000n    909.8575m     86.2814m    666.4253m      1.0000       0.           0.       
   23.09000n    910.8916m     82.8641m    674.8101m      1.0000       0.           0.       
   23.10000n    911.8844m     79.5885m    682.2722m      1.0000       0.           0.       
   23.11000n    912.8151m     76.5256m    688.3472m      1.0000       0.           0.       
   23.12000n    913.7458m     73.4628m    694.4222m      1.0000       0.           0.       
   23.13000n    914.6707m     70.4014m    700.4754m      1.0000       0.           0.       
   23.14000n    915.4592m     67.5030m    705.1184m      1.0000       0.           0.       
   23.15000n    916.1998m     64.7210m    708.9760m      1.0000       0.           0.       
   23.16000n    916.8855m     62.0538m    711.9331m      1.0000       0.           0.       
   23.17000n    917.5258m     59.4833m    714.0811m      1.0000       0.           0.       
   23.18000n    918.1662m     56.9127m    716.2290m      1.0000       0.           0.       
   23.19000n    918.7514m     54.4271m    717.6418m      1.0000       0.           0.       
   23.20000n    919.3106m     51.9817m    718.7066m      1.0000       0.           0.       
   23.21000n    919.8174m     49.5850m    718.6716m      1.0000       0.           0.       
   23.22000n    920.3167m     47.2579m    717.7067m      1.0000       0.           0.       
   23.23000n    920.7992m     44.9816m    716.0550m      1.0000       0.           0.       
   23.24000n    921.2512m     42.7944m    713.2292m      1.0000       0.           0.       
   23.25000n    921.7024m     40.6097m    710.3709m      1.0000       0.           0.       
   23.26000n    922.1325m     38.5619m    705.7077m      1.0000       0.           0.       
   23.27000n    922.5591m     36.5372m    700.7390m      1.0000       0.           0.       
   23.28000n    922.9857m     34.5125m    695.7704m      1.0000       0.           0.       
   23.29000n    923.4123m     32.4878m    690.8017m      1.0000       0.           0.       
   23.30000n    923.8389m     30.4631m    685.8331m      1.0000       0.           0.       
   23.31000n    924.2607m     28.6326m    678.4261m      1.0000       0.           0.       
   23.32000n    924.6821m     26.8144m    670.8651m      1.0000       0.           0.       
   23.33000n    925.1035m     24.9962m    663.3041m      1.0000       0.           0.       
   23.34000n    925.5249m     23.1780m    655.7432m      1.0000       0.           0.       
   23.35000n    925.9464m     21.3598m    648.1822m      1.0000       0.           0.       
   23.36000n    926.4031m     19.7385m    638.8971m      1.0000       0.           0.       
   23.37000n    926.8617m     18.1273m    629.5239m      1.0000       0.           0.       
   23.38000n    927.3203m     16.5161m    620.1506m      1.0000       0.           0.       
   23.39000n    927.7788m     14.9048m    610.7774m      1.0000       0.           0.       
   23.40000n    928.2658m     13.4172m    600.7283m      1.0000       0.           0.       
   23.41000n    928.7596m     11.9590m    590.5184m      1.0000       0.           0.       
   23.42000n    929.2534m     10.5008m    580.3086m      1.0000       0.           0.       
   23.43000n    929.7783m      9.1566m    569.5871m      1.0000       0.           0.       
   23.44000n    930.3139m      7.8515m    558.6901m      1.0000       0.           0.       
   23.45000n    930.8494m      6.5465m    547.7932m      1.0000       0.           0.       
   23.46000n    931.3850m      5.2414m    536.8962m      1.0000       0.           0.       
   23.47000n    931.9205m      3.9363m    525.9992m      1.0000       0.           0.       
   23.48000n    932.5032m      2.7715m    514.9098m      1.0000       0.           0.       
   23.49000n    933.1010m      1.6521m    503.7581m      1.0000       0.           0.       
   23.50000n    933.6989m    532.7159u    492.6064m      1.0000       0.           0.       
   23.51000n    934.2968m   -586.6918u    481.4547m      1.0000       0.           0.       
   23.52000n    934.8946m     -1.7061m    470.3030m      1.0000       0.           0.       
   23.53000n    935.4781m     -2.7084m    459.2068m      1.0000       0.           0.       
   23.54000n    936.0554m     -3.6613m    448.1338m      1.0000       0.           0.       
   23.55000n    936.6327m     -4.6142m    437.0609m      1.0000       0.           0.       
   23.56000n    936.9240m     -5.5238m    426.0791m      1.0000       0.           0.       
   23.57000n    937.0396m     -6.4067m    415.1534m      1.0000       0.           0.       
   23.58000n    930.4558m     -7.1208m    404.7241m      1.0000       0.           0.       
   23.59000n    923.3486m     -7.8217m    394.3336m      1.0000       0.           0.       
   23.60000n    916.2413m     -8.5226m    383.9431m      1.0000       0.           0.       
   23.61000n    909.1341m     -9.2235m    373.5525m      1.0000       0.           0.       
   23.62000n    902.0268m     -9.9244m    363.1620m      1.0000       0.           0.       
   23.63000n    872.6090m    -10.1080m    353.6544m    964.5818m      0.           0.       
   23.64000n    837.9669m    -10.1704m    344.3535m    920.8702m      0.           0.       
   23.65000n    803.3248m    -10.2329m    335.0525m    877.1586m      0.           0.       
   23.66000n    768.6828m    -10.2953m    325.7516m    833.4470m      0.           0.       
   23.67000n    734.0407m    -10.3578m    316.4507m    789.7354m      0.           0.       
   23.68000n    699.3987m    -10.4202m    307.1498m    746.0238m      0.           0.       
   23.69000n    664.7566m    -10.4827m    297.8489m    702.3122m      0.           0.       
   23.70000n    628.0015m     -9.9781m    289.1064m    654.0000m      0.           0.       
   23.71000n    590.4711m     -9.2655m    280.5689m    604.0000m      0.           0.       
   23.72000n    553.0399m     -7.5519m    272.4755m    554.0000m      0.           0.       
   23.73000n    515.6134m     -5.7906m    264.4033m    504.0000m      0.           0.       
   23.74000n    483.0522m      1.4457m    257.0244m    454.0000m      0.           0.       
   23.75000n    452.3612m     10.7866m    249.9119m    404.0000m      0.           0.       
   23.76000n    421.6701m     20.1275m    242.7995m    354.0000m      0.           0.       
   23.77000n    390.9791m     29.4684m    235.6870m    304.0000m      0.           0.       
   23.78000n    360.2881m     38.8094m    228.5746m    254.0000m      0.           0.       
   23.79000n    329.5971m     48.1503m    221.4621m    204.0000m      0.           0.       
   23.80000n    298.9061m     57.4912m    214.3496m    154.0000m      0.           0.       
   23.81000n    271.3069m     70.2874m    207.5929m    104.0000m      0.           0.       
   23.82000n    256.2652m     89.6947m    201.3974m     67.8277m     14.1710m      0.       
   23.83000n    250.1634m    112.6589m    195.4647m     43.6413m     40.6255m      0.       
   23.84000n    244.0616m    135.6230m    189.5320m     19.4548m     67.0800m      0.       
   23.85000n    240.3854m    159.1383m    183.7074m      0.          95.2225m      0.       
   23.86000n    246.6821m    184.9195m    178.3276m      0.         130.3051m      0.       
   23.87000n    252.9787m    210.7007m    172.9478m      0.         165.3878m      0.       
   23.88000n    262.2975m    236.4380m    167.7974m      0.         207.0000m      0.       
   23.89000n    275.4984m    262.1190m    162.9416m      0.         257.0000m      0.       
   23.90000n    288.6994m    287.8000m    158.0858m      0.         307.0000m      0.       
   23.91000n    301.9003m    313.4809m    153.2300m      0.         357.0000m      0.       
   23.92000n    315.6294m    338.3337m    148.4812m      0.         407.0000m      0.       
   23.93000n    331.4431m    359.9177m    144.1543m      0.         457.0000m      0.       
   23.94000n    347.2568m    381.5017m    139.8275m      0.         507.0000m      0.       
   23.95000n    362.9805m    402.8948m    135.5102m      0.         557.0000m      0.       
   23.96000n    373.7849m    413.8599m    131.7134m      0.         607.0000m      0.       
   23.97000n    384.5894m    424.8250m    127.9165m      0.         657.0000m      0.       
   23.98000n    395.3939m    435.7901m    124.1197m      0.         707.0000m      0.       
   23.99000n    406.1983m    446.7552m    120.3229m      0.         757.0000m      0.       
   24.00000n    417.0028m    457.7203m    116.5260m      0.         807.0000m      0.       
y

          ***** job concluded
1****** HSPICE -- J-2014.09-SP1-2 64-BIT (Jan 29 2015) RHEL64 ******            
 ******  
 ﻿******************** stl ver 2.3 t element basic model ********************

 ****** job statistics summary tnom=  25.000 temp=  25.000 ******
  
  
 ******  Machine Information  ******
 CPU:
 model name	: Intel(R) Xeon(R) CPU           W3520  @ 2.67GHz
 cpu MHz	: 2659.892
  
 OS:
 Linux version 3.10.0-327.18.2.el7.x86_64 (builder@kbuilder.dev.centos.org) (gcc version 4.8.3 20140911 (Red Hat 4.8.3-9) (GCC) ) #1 SMP Thu May 12 11:03:55 UTC 2016


  ******  HSPICE Threads Information  ******

  Command Line Threads Count :     1
  Available CPU Count        :     4
  Actual Threads Count       :     1


  ******  Circuit Statistics  ******
  # nodes       =      25 # elements   =      28
  # resistors   =       4 # capacitors =       2 # inductors   =       2
  # mutual_inds =       0 # vccs       =       0 # vcvs        =       0
  # cccs        =       0 # ccvs       =       0 # volt_srcs   =       2
  # curr_srcs   =       0 # diodes     =       0 # bjts        =       0
  # jfets       =       0 # mosfets    =       0 # U elements  =       0
  # T elements  =       3 # W elements =      15 # B elements  =       0
  # S elements  =       0 # P elements =       0 # va device   =       0
  # vector_srcs =       0 # N elements =       0


  ******  Runtime Statistics (seconds)  ******

  analysis           time    # points   tot. iter  conv.iter
  op point           0.00           1           4
  transient          0.13         401        1698         849 rev=        87
  readin             0.00
  errchk             0.07
  setup              0.00
  output             0.00


           peak memory used        161.32 megabytes
           total cpu time            0.20 seconds
           total elapsed time        0.20 seconds
           job started at     00:27:02 07/13/2018
           job ended   at     00:27:02 07/13/2018


 lic: total license checkout elapse time:        0.00(s)
