 ****** HSPICE -- J-2014.09-SP1-2 64-BIT (Jan 29 2015) RHEL64 ******            
  Copyright (C) 2014 Synopsys, Inc. All Rights Reserved.                        
  Unpublished-rights reserved under US copyright laws.
  This program is protected by law and is subject to the
  terms and conditions of the license agreement from Synopsys.
  Use of this program is your acceptance to be bound by the
  license agreement. HSPICE is the trademark of Synopsys, Inc.
  Input File: template_W_ga_best.sp                                             
  Command line options: template_W_ga_best.sp -o template_W_ga_best.lis
 lic:  
 lic: FLEXlm: v10.9.8 
 lic: USER:   odaira               HOSTNAME: 0a4c52628bf8 
 lic: HOSTID: 0242ac110002         PID:      31380 
 lic: Using FLEXlm license file: 
 lic: /usr/synopsys/J-2014.09-SP1-2/admin/license/key 
 lic: Checkout 1 hspice 
 lic: License/Maintenance for hspice will expire on 31-mar-2019/2017.12 
 lic: 82(in_use)/180(total) FLOATING license(s) on SERVER /usr/synopsys/J-2014.09-SP1-2/admin/licens
 lic:   
 Init: read install configuration file: /usr/synopsys/J-2014.09-SP1-2/hspice/meta.cfg

 **warning** It is recommended that you set start explicitly:
             .TRAN tstep tstop START=val


  **info** (template_W_ga_best.sp:11) DC voltage reset to initial transient source value              in source        0:vs1                 new dc=  0.0000D+00
  
      
 *****************************************************************
 ******  option summary
 ******
 runlvl  = 3         bypass  = 2         

 **info** rebuilding matrix with pivot option

 **info** dc convergence successful at Newton-Raphson method 
1****** HSPICE -- J-2014.09-SP1-2 64-BIT (Jan 29 2015) RHEL64 ******            
 ******  
 ******************** stl ver 2.3 t element basic model ********************

 ****** operating point information tnom=  25.000 temp=  25.000 ******
 ****** operating point status is voltage   simulation time is     0.     
    node    =voltage      node    =voltage      node    =voltage      node    =voltage      node    =voltage

 +0:101     =   0.      0:102     =   0.      0:103     =   0.      0:104     =   0.      0:1001    =   0.     
 +0:1002    =   0.      0:2000    =   0.      0:2001    =   0.      0:2002    =   0.      0:2003    =   0.     
 +0:4000    =   0.      0:4001    =   0.      0:4002    =   0.      0:4003    =   0.      0:6000    =   0.     
 +0:6001    =   0.      0:6002    =   0.      0:6003    =   0.      0:optpt1  =   0.      0:optpt2  =   0.     
 +0:optpt3  =   0.      0:vspt1   =   0.      0:vspt2   =   0.      0:vspt3   =   0.     

 ******  
 ******************** stl ver 2.3 t element basic model ********************

 ****** transient analysis tnom=  25.000 temp=  25.000 ******
x

        time    voltage      voltage      voltage      voltage      voltage      voltage    
                  optpt1       optpt2       optpt3        vspt1        vspt2        vspt3   
    0.            0.           0.           0.           0.           0.           0.       
    5.00000p      0.           0.           0.           0.           0.           0.       
   10.00000p      0.           0.           0.           0.           0.           0.       
   15.00000p      0.           0.           0.           0.           0.           0.       
   20.00000p      0.           0.           0.           0.           0.           0.       
   25.00000p      0.           0.           0.           0.           0.           0.       
   30.00000p      0.           0.           0.           0.           0.           0.       
   35.00000p      0.           0.           0.           0.           0.           0.       
   40.00000p      0.           0.           0.           0.           0.           0.       
   45.00000p      0.           0.           0.           0.           0.           0.       
   50.00000p      0.           0.           0.           0.           0.           0.       
   55.00000p      0.           0.           0.           0.           0.           0.       
   60.00000p      0.           0.           0.           0.           0.           0.       
   65.00000p      0.           0.           0.           0.           0.           0.       
   70.00000p      0.           0.           0.           0.           0.           0.       
   75.00000p      0.           0.           0.           0.           0.           0.       
   80.00000p      0.           0.           0.           0.           0.           0.       
   85.00000p      0.           0.           0.           0.           0.           0.       
   90.00000p      0.           0.           0.           0.           0.           0.       
   95.00000p      0.           0.           0.           0.           0.           0.       
  100.00000p      0.           0.           0.           0.           0.           0.       
  105.00000p      0.           0.           0.           0.           0.           0.       
  110.00000p      0.           0.           0.           0.           0.           0.       
  115.00000p      0.           0.           0.           0.           0.           0.       
  120.00000p      0.           0.           0.           0.           0.           0.       
  125.00000p      0.           0.           0.           0.           0.           0.       
  130.00000p      0.           0.           0.           0.           0.           0.       
  135.00000p      0.           0.           0.           0.           0.           0.       
  140.00000p      0.           0.           0.           0.           0.           0.       
  145.00000p      0.           0.           0.           0.           0.           0.       
  150.00000p      0.           0.           0.           0.           0.           0.       
  155.00000p      0.           0.           0.           0.           0.           0.       
  160.00000p      0.           0.           0.           0.           0.           0.       
  165.00000p      0.           0.           0.           0.           0.           0.       
  170.00000p      0.           0.           0.           0.           0.           0.       
  175.00000p      0.           0.           0.           0.           0.           0.       
  180.00000p      0.           0.           0.           0.           0.           0.       
  185.00000p      0.           0.           0.           0.           0.           0.       
  190.00000p      0.           0.           0.           0.           0.           0.       
  195.00000p      0.           0.           0.           0.           0.           0.       
  200.00000p      0.           0.           0.           0.           0.           0.       
  205.00000p      0.           0.           0.           0.           0.           0.       
  210.00000p      0.           0.           0.           0.           0.           0.       
  215.00000p      0.           0.           0.           0.           0.           0.       
  220.00000p      0.           0.           0.           0.           0.           0.       
  225.00000p      0.           0.           0.           0.           0.           0.       
  230.00000p      0.           0.           0.           0.           0.           0.       
  235.00000p      0.           0.           0.           0.           0.           0.       
  240.00000p      0.           0.           0.           0.           0.           0.       
  245.00000p      0.           0.           0.           0.           0.           0.       
  250.00000p      0.           0.           0.           0.           0.           0.       
  255.00000p      0.           0.           0.           0.           0.           0.       
  260.00000p      0.           0.           0.           0.           0.           0.       
  265.00000p      0.           0.           0.           0.           0.           0.       
  270.00000p      0.           0.           0.           0.           0.           0.       
  275.00000p      0.           0.           0.           0.           0.           0.       
  280.00000p      0.           0.           0.           0.           0.           0.       
  285.00000p      0.           0.           0.           0.           0.           0.       
  290.00000p      0.           0.           0.           0.           0.           0.       
  295.00000p      0.           0.           0.           0.           0.           0.       
  300.00000p      0.           0.           0.           0.           0.           0.       
  305.00000p      0.           0.           0.           0.           0.           0.       
  310.00000p      0.           0.           0.           0.           0.           0.       
  315.00000p      0.           0.           0.           0.           0.           0.       
  320.00000p      0.           0.           0.           0.           0.           0.       
  325.00000p      0.           0.           0.           0.           0.           0.       
  330.00000p      0.           0.           0.           0.           0.           0.       
  335.00000p      0.           0.           0.           0.           0.           0.       
  340.00000p      0.           0.           0.           0.           0.           0.       
  345.00000p      0.           0.           0.           0.           0.           0.       
  350.00000p      0.           0.           0.           0.           0.           0.       
  355.00000p      0.           0.           0.           0.           0.           0.       
  360.00000p      0.           0.           0.           0.           0.           0.       
  365.00000p      0.           0.           0.           0.           0.           0.       
  370.00000p      0.           0.           0.           0.           0.           0.       
  375.00000p      0.           0.           0.           0.           0.           0.       
  380.00000p      0.           0.           0.           0.           0.           0.       
  385.00000p      0.           0.           0.           0.           0.           0.       
  390.00000p      0.           0.           0.           0.           0.           0.       
  395.00000p      0.           0.           0.           0.           0.           0.       
  400.00000p      0.           0.           0.           0.           0.           0.       
  405.00000p      0.           0.           0.           0.           0.           0.       
  410.00000p      0.           0.           0.           0.           0.           0.       
  415.00000p      0.           0.           0.           0.           0.           0.       
  420.00000p      0.           0.           0.           0.           0.           0.       
  425.00000p      0.           0.           0.           0.           0.           0.       
  430.00000p      0.           0.           0.           0.           0.           0.       
  435.00000p      0.           0.           0.           0.           0.           0.       
  440.00000p      0.           0.           0.           0.           0.           0.       
  445.00000p      0.           0.           0.           0.           0.           0.       
  450.00000p      0.           0.           0.           0.           0.           0.       
  455.00000p      0.           0.           0.           0.           0.           0.       
  460.00000p      0.           0.           0.           0.           0.           0.       
  465.00000p      0.           0.           0.           0.           0.           0.       
  470.00000p      0.           0.           0.           0.           0.           0.       
  475.00000p      0.           0.           0.           0.           0.           0.       
  480.00000p      0.           0.           0.           0.           0.           0.       
  485.00000p      0.           0.           0.           0.           0.           0.       
  490.00000p      0.           0.           0.           0.           0.           0.       
  495.00000p      0.           0.           0.           0.           0.           0.       
  500.00000p      0.           0.           0.           0.           0.           0.       
  505.00000p      0.           0.           0.           0.           0.           0.       
  510.00000p      0.           0.           0.           0.           0.           0.       
  515.00000p      0.           0.           0.           0.           0.           0.       
  520.00000p      0.           0.           0.           0.           0.           0.       
  525.00000p      0.           0.           0.           0.           0.           0.       
  530.00000p      0.           0.           0.           0.           0.           0.       
  535.00000p      0.           0.           0.           0.           0.           0.       
  540.00000p      0.           0.           0.           0.           0.           0.       
  545.00000p      0.           0.           0.           0.           0.           0.       
  550.00000p      0.           0.           0.           0.           0.           0.       
  555.00000p      0.           0.           0.           0.           0.           0.       
  560.00000p      0.           0.           0.           0.           0.           0.       
  565.00000p      0.           0.           0.           0.           0.           0.       
  570.00000p      0.           0.           0.           0.           0.           0.       
  575.00000p      0.           0.           0.           0.           0.           0.       
  580.00000p      0.           0.           0.           0.           0.           0.       
  585.00000p      0.           0.           0.           0.           0.           0.       
  590.00000p      0.           0.           0.           0.           0.           0.       
  595.00000p      0.           0.           0.           0.           0.           0.       
  600.00000p      0.           0.           0.           0.           0.           0.       
  605.00000p      0.           0.           0.           0.           0.           0.       
  610.00000p      0.           0.           0.           0.           0.           0.       
  615.00000p      0.           0.           0.           0.           0.           0.       
  620.00000p      0.           0.           0.           0.           0.           0.       
  625.00000p      0.           0.           0.           0.           0.           0.       
  630.00000p      0.           0.           0.           0.           0.           0.       
  635.00000p      0.           0.           0.           0.           0.           0.       
  640.00000p      0.           0.           0.           0.           0.           0.       
  645.00000p      0.           0.           0.           0.           0.           0.       
  650.00000p      0.           0.           0.           0.           0.           0.       
  655.00000p      0.           0.           0.           0.           0.           0.       
  660.00000p      0.           0.           0.           0.           0.           0.       
  665.00000p      0.           0.           0.           0.           0.           0.       
  670.00000p      0.           0.           0.           0.           0.           0.       
  675.00000p      0.           0.           0.           0.           0.           0.       
  680.00000p      0.           0.           0.           0.           0.           0.       
  685.00000p      0.           0.           0.           0.           0.           0.       
  690.00000p      0.           0.           0.           0.           0.           0.       
  695.00000p      0.           0.           0.           0.           0.           0.       
  700.00000p      0.           0.           0.           0.           0.           0.       
  705.00000p      0.           0.           0.           0.           0.           0.       
  710.00000p      0.           0.           0.           0.           0.           0.       
  715.00000p      0.           0.           0.           0.           0.           0.       
  720.00000p      0.           0.           0.           0.           0.           0.       
  725.00000p      0.           0.           0.           0.           0.           0.       
  730.00000p      0.           0.           0.           0.           0.           0.       
  735.00000p      0.           0.           0.           0.           0.           0.       
  740.00000p      0.           0.           0.           0.           0.           0.       
  745.00000p      0.           0.           0.           0.           0.           0.       
  750.00000p      0.           0.           0.           0.           0.           0.       
  755.00000p      0.           0.           0.           0.           0.           0.       
  760.00000p      0.           0.           0.           0.           0.           0.       
  765.00000p      0.           0.           0.           0.           0.           0.       
  770.00000p      0.           0.           0.           0.           0.           0.       
  775.00000p      0.           0.           0.           0.           0.           0.       
  780.00000p      0.           0.           0.           0.           0.           0.       
  785.00000p      0.           0.           0.           0.           0.           0.       
  790.00000p      0.           0.           0.           0.           0.           0.       
  795.00000p      0.           0.           0.           0.           0.           0.       
  800.00000p      0.           0.           0.           0.           0.           0.       
  805.00000p      0.           0.           0.           0.           0.           0.       
  810.00000p      0.           0.           0.           0.           0.           0.       
  815.00000p      0.           0.           0.           0.           0.           0.       
  820.00000p      0.           0.           0.           0.           0.           0.       
  825.00000p      0.           0.           0.           0.           0.           0.       
  830.00000p      0.           0.           0.           0.           0.           0.       
  835.00000p      0.           0.           0.           0.           0.           0.       
  840.00000p      0.           0.           0.           0.           0.           0.       
  845.00000p      0.           0.           0.           0.           0.           0.       
  850.00000p      0.           0.           0.           0.           0.           0.       
  855.00000p      0.           0.           0.           0.           0.           0.       
  860.00000p      0.           0.           0.           0.           0.           0.       
  865.00000p      0.           0.           0.           0.           0.           0.       
  870.00000p      0.           0.           0.           0.           0.           0.       
  875.00000p      0.           0.           0.           0.           0.           0.       
  880.00000p      0.           0.           0.           0.           0.           0.       
  885.00000p      0.           0.           0.           0.           0.           0.       
  890.00000p      0.           0.           0.           0.           0.           0.       
  895.00000p      0.           0.           0.           0.           0.           0.       
  900.00000p      0.           0.           0.           0.           0.           0.       
  905.00000p      0.           0.           0.           0.           0.           0.       
  910.00000p      0.           0.           0.           0.           0.           0.       
  915.00000p      0.           0.           0.           0.           0.           0.       
  920.00000p      0.           0.           0.           0.           0.           0.       
  925.00000p      0.           0.           0.           0.           0.           0.       
  930.00000p      0.           0.           0.           0.           0.           0.       
  935.00000p      0.           0.           0.           0.           0.           0.       
  940.00000p      0.           0.           0.           0.           0.           0.       
  945.00000p      0.           0.           0.           0.           0.           0.       
  950.00000p      0.           0.           0.           0.           0.           0.       
  955.00000p      0.           0.           0.           0.           0.           0.       
  960.00000p      0.           0.           0.           0.           0.           0.       
  965.00000p      0.           0.           0.           0.           0.           0.       
  970.00000p      0.           0.           0.           0.           0.           0.       
  975.00000p      0.           0.           0.           0.           0.           0.       
  980.00000p      0.           0.           0.           0.           0.           0.       
  985.00000p      0.           0.           0.           0.           0.           0.       
  990.00000p      0.           0.           0.           0.           0.           0.       
  995.00000p      0.           0.           0.           0.           0.           0.       
    1.00000n      0.           0.           0.           0.           0.           0.       
    1.00500n      0.           0.           0.           0.           0.           0.       
    1.01000n      0.           0.           0.           0.           0.           0.       
    1.01500n      0.           0.           0.           0.           0.           0.       
    1.02000n      0.           0.           0.           0.           0.           0.       
    1.02500n      0.           0.           0.           0.           0.           0.       
    1.03000n      0.           0.           0.           0.           0.           0.       
    1.03500n      0.           0.           0.           0.           0.           0.       
    1.04000n      0.           0.           0.           0.           0.           0.       
    1.04500n      0.           0.           0.           0.           0.           0.       
    1.05000n      0.           0.           0.           0.           0.           0.       
    1.05500n      0.           0.           0.           0.           0.           0.       
    1.06000n      0.           0.           0.           0.           0.           0.       
    1.06500n      0.           0.           0.           0.           0.           0.       
    1.07000n      0.           0.           0.           0.           0.           0.       
    1.07500n      0.           0.           0.           0.           0.           0.       
    1.08000n      0.           0.           0.           0.           0.           0.       
    1.08500n      0.           0.           0.           0.           0.           0.       
    1.09000n      0.           0.           0.           0.           0.           0.       
    1.09500n      0.           0.           0.           0.           0.           0.       
    1.10000n      0.           0.           0.           0.           0.           0.       
    1.10500n      0.           0.           0.           0.           0.           0.       
    1.11000n      0.           0.           0.           0.           0.           0.       
    1.11500n      0.           0.           0.           0.           0.           0.       
    1.12000n      0.           0.           0.           0.           0.           0.       
    1.12500n      0.           0.           0.           0.           0.           0.       
    1.13000n      0.           0.           0.           0.           0.           0.       
    1.13500n      0.           0.           0.           0.           0.           0.       
    1.14000n      0.           0.           0.           0.           0.           0.       
    1.14500n      0.           0.           0.           0.           0.           0.       
    1.15000n      0.           0.           0.           0.           0.           0.       
    1.15500n      0.           0.           0.           0.           0.           0.       
    1.16000n      0.           0.           0.           0.           0.           0.       
    1.16500n      0.           0.           0.           0.           0.           0.       
    1.17000n      0.           0.           0.           0.           0.           0.       
    1.17500n      0.           0.           0.           0.           0.           0.       
    1.18000n      0.           0.           0.           0.           0.           0.       
    1.18500n      0.           0.           0.           0.           0.           0.       
    1.19000n      0.           0.           0.           0.           0.           0.       
    1.19500n      0.           0.           0.           0.           0.           0.       
    1.20000n      0.           0.           0.           0.           0.           0.       
    1.20500n      0.           0.           0.           0.           0.           0.       
    1.21000n      0.           0.           0.           0.           0.           0.       
    1.21500n      0.           0.           0.           0.           0.           0.       
    1.22000n      0.           0.           0.           0.           0.           0.       
    1.22500n      0.           0.           0.           0.           0.           0.       
    1.23000n      0.           0.           0.           0.           0.           0.       
    1.23500n      0.           0.           0.           0.           0.           0.       
    1.24000n      0.           0.           0.           0.           0.           0.       
    1.24500n      0.           0.           0.           0.           0.           0.       
    1.25000n      0.           0.           0.           0.           0.           0.       
    1.25500n      0.           0.           0.           0.           0.           0.       
    1.26000n      0.           0.           0.           0.           0.           0.       
    1.26500n      0.           0.           0.           0.           0.           0.       
    1.27000n      0.           0.           0.           0.           0.           0.       
    1.27500n      0.           0.           0.           0.           0.           0.       
    1.28000n      0.           0.           0.           0.           0.           0.       
    1.28500n      0.           0.           0.           0.           0.           0.       
    1.29000n      0.           0.           0.           0.           0.           0.       
    1.29500n      0.           0.           0.           0.           0.           0.       
    1.30000n      0.           0.           0.           0.           0.           0.       
    1.30500n      0.           0.           0.           0.           0.           0.       
    1.31000n      0.           0.           0.           0.           0.           0.       
    1.31500n      0.           0.           0.           0.           0.           0.       
    1.32000n      0.           0.           0.           0.           0.           0.       
    1.32500n      0.           0.           0.           0.           0.           0.       
    1.33000n      0.           0.           0.           0.           0.           0.       
    1.33500n      0.           0.           0.           0.           0.           0.       
    1.34000n      0.           0.           0.           0.           0.           0.       
    1.34500n      0.           0.           0.           0.           0.           0.       
    1.35000n      0.           0.           0.           0.           0.           0.       
    1.35500n      0.           0.           0.           0.           0.           0.       
    1.36000n      0.           0.           0.           0.           0.           0.       
    1.36500n      0.           0.           0.           0.           0.           0.       
    1.37000n      0.           0.           0.           0.           0.           0.       
    1.37500n      0.           0.           0.           0.           0.           0.       
    1.38000n      0.           0.           0.           0.           0.           0.       
    1.38500n      0.           0.           0.           0.           0.           0.       
    1.39000n      0.           0.           0.           0.           0.           0.       
    1.39500n      0.           0.           0.           0.           0.           0.       
    1.40000n      0.           0.           0.           0.           0.           0.       
    1.40500n      0.           0.           0.           0.           0.           0.       
    1.41000n      0.           0.           0.           0.           0.           0.       
    1.41500n      0.           0.           0.           0.           0.           0.       
    1.42000n      0.           0.           0.           0.           0.           0.       
    1.42500n      0.           0.           0.           0.           0.           0.       
    1.43000n      0.           0.           0.           0.           0.           0.       
    1.43500n      0.           0.           0.           0.           0.           0.       
    1.44000n      0.           0.           0.           0.           0.           0.       
    1.44500n      0.           0.           0.           0.           0.           0.       
    1.45000n      0.           0.           0.           0.           0.           0.       
    1.45500n      0.           0.           0.           0.           0.           0.       
    1.46000n      0.           0.           0.           0.           0.           0.       
    1.46500n      0.           0.           0.           0.           0.           0.       
    1.47000n      0.           0.           0.           0.           0.           0.       
    1.47500n      0.           0.           0.           0.           0.           0.       
    1.48000n      0.           0.           0.           0.           0.           0.       
    1.48500n      0.           0.           0.           0.           0.           0.       
    1.49000n      0.           0.           0.           0.           0.           0.       
    1.49500n      0.           0.           0.           0.           0.           0.       
    1.50000n      0.           0.           0.           0.           0.           0.       
    1.50500n      0.           0.           0.           0.           0.           0.       
    1.51000n      0.           0.           0.           0.           0.           0.       
    1.51500n      0.           0.           0.           0.           0.           0.       
    1.52000n      0.           0.           0.           0.           0.           0.       
    1.52500n      0.           0.           0.           0.           0.           0.       
    1.53000n      0.           0.           0.           0.           0.           0.       
    1.53500n      0.           0.           0.           0.           0.           0.       
    1.54000n      0.           0.           0.           0.           0.           0.       
    1.54500n      0.           0.           0.           0.           0.           0.       
    1.55000n      0.           0.           0.           0.           0.           0.       
    1.55500n      0.           0.           0.           0.           0.           0.       
    1.56000n      0.           0.           0.           0.           0.           0.       
    1.56500n      0.           0.           0.           0.           0.           0.       
    1.57000n      0.           0.           0.           0.           0.           0.       
    1.57500n      0.           0.           0.           0.           0.           0.       
    1.58000n      0.           0.           0.           0.           0.           0.       
    1.58500n      0.           0.           0.           0.           0.           0.       
    1.59000n      0.           0.           0.           0.           0.           0.       
    1.59500n      0.           0.           0.           0.           0.           0.       
    1.60000n      0.           0.           0.           0.           0.           0.       
    1.60500n      0.           0.           0.           0.           0.           0.       
    1.61000n      0.           0.           0.           0.           0.           0.       
    1.61500n      0.           0.           0.           0.           0.           0.       
    1.62000n      0.           0.           0.           0.           0.           0.       
    1.62500n      0.           0.           0.           0.           0.           0.       
    1.63000n      0.           0.           0.           0.           0.           0.       
    1.63500n      0.           0.           0.           0.           0.           0.       
    1.64000n      0.           0.           0.           0.           0.           0.       
    1.64500n      0.           0.           0.           0.           0.           0.       
    1.65000n      0.           0.           0.           0.           0.           0.       
    1.65500n      0.           0.           0.           0.           0.           0.       
    1.66000n      0.           0.           0.           0.           0.           0.       
    1.66500n      0.           0.           0.           0.           0.           0.       
    1.67000n      0.           0.           0.           0.           0.           0.       
    1.67500n      0.           0.           0.           0.           0.           0.       
    1.68000n      0.           0.           0.           0.           0.           0.       
    1.68500n      0.           0.           0.           0.           0.           0.       
    1.69000n      0.           0.           0.           0.           0.           0.       
    1.69500n      0.           0.           0.           0.           0.           0.       
    1.70000n      0.           0.           0.           0.           0.           0.       
    1.70500n      0.           0.           0.           0.           0.           0.       
    1.71000n      0.           0.           0.           0.           0.           0.       
    1.71500n      0.           0.           0.           0.           0.           0.       
    1.72000n      0.           0.           0.           0.           0.           0.       
    1.72500n      0.           0.           0.           0.           0.           0.       
    1.73000n      0.           0.           0.           0.           0.           0.       
    1.73500n      0.           0.           0.           0.           0.           0.       
    1.74000n      0.           0.           0.           0.           0.           0.       
    1.74500n      0.           0.           0.           0.           0.           0.       
    1.75000n      0.           0.           0.           0.           0.           0.       
    1.75500n      0.           0.           0.           0.           0.           0.       
    1.76000n      0.           0.           0.           0.           0.           0.       
    1.76500n      0.           0.           0.           0.           0.           0.       
    1.77000n      0.           0.           0.           0.           0.           0.       
    1.77500n      0.           0.           0.           0.           0.           0.       
    1.78000n      0.           0.           0.           0.           0.           0.       
    1.78500n      0.           0.           0.           0.           0.           0.       
    1.79000n      0.           0.           0.           0.           0.           0.       
    1.79500n      0.           0.           0.           0.           0.           0.       
    1.80000n      0.           0.           0.           0.           0.           0.       
    1.80500n      0.           0.           0.           0.           0.           0.       
    1.81000n      0.           0.           0.           0.           0.           0.       
    1.81500n      0.           0.           0.           0.           0.           0.       
    1.82000n      0.           0.           0.           0.           0.           0.       
    1.82500n      0.           0.           0.           0.           0.           0.       
    1.83000n      0.           0.           0.           0.           0.           0.       
    1.83500n      0.           0.           0.           0.           0.           0.       
    1.84000n      0.           0.           0.           0.           0.           0.       
    1.84500n      0.           0.           0.           0.           0.           0.       
    1.85000n      0.           0.           0.           0.           0.           0.       
    1.85500n      0.           0.           0.           0.           0.           0.       
    1.86000n      0.           0.           0.           0.           0.           0.       
    1.86500n      0.           0.           0.           0.           0.           0.       
    1.87000n      0.           0.           0.           0.           0.           0.       
    1.87500n      0.           0.           0.           0.           0.           0.       
    1.88000n      0.           0.           0.           0.           0.           0.       
    1.88500n      0.           0.           0.           0.           0.           0.       
    1.89000n      0.           0.           0.           0.           0.           0.       
    1.89500n      0.           0.           0.           0.           0.           0.       
    1.90000n      0.           0.           0.           0.           0.           0.       
    1.90500n      0.           0.           0.           0.           0.           0.       
    1.91000n      0.           0.           0.           0.           0.           0.       
    1.91500n      0.           0.           0.           0.           0.           0.       
    1.92000n      0.           0.           0.           0.           0.           0.       
    1.92500n      0.           0.           0.           0.           0.           0.       
    1.93000n      0.           0.           0.           0.           0.           0.       
    1.93500n      0.           0.           0.           0.           0.           0.       
    1.94000n      0.           0.           0.           0.           0.           0.       
    1.94500n      0.           0.           0.           0.           0.           0.       
    1.95000n      0.           0.           0.           0.           0.           0.       
    1.95500n      0.           0.           0.           0.           0.           0.       
    1.96000n      0.           0.           0.           0.           0.           0.       
    1.96500n      0.           0.           0.           0.           0.           0.       
    1.97000n      0.           0.           0.           0.           0.           0.       
    1.97500n      0.           0.           0.           0.           0.           0.       
    1.98000n      0.           0.           0.           0.           0.           0.       
    1.98500n      0.           0.           0.           0.           0.           0.       
    1.99000n      0.           0.           0.           0.           0.           0.       
    1.99500n      0.           0.           0.           0.           0.           0.       
    2.00000n      0.           0.           0.           0.           0.           0.       
    2.00500n      0.           0.           0.           0.           0.           0.       
    2.01000n      0.           0.           0.           0.           0.           0.       
    2.01500n      0.           0.           0.           0.           0.           0.       
    2.02000n      0.           0.           0.           0.           0.           0.       
    2.02500n      0.           0.           0.           0.           0.           0.       
    2.03000n      0.           0.           0.           0.           0.           0.       
    2.03500n      0.           0.           0.           0.           0.           0.       
    2.04000n      0.           0.           0.           0.           0.           0.       
    2.04500n      0.           0.           0.           0.           0.           0.       
    2.05000n      0.           0.           0.           0.           0.           0.       
    2.05500n      0.           0.           0.           0.           0.           0.       
    2.06000n      0.           0.           0.           0.           0.           0.       
    2.06500n      0.           0.           0.           0.           0.           0.       
    2.07000n      0.           0.           0.           0.           0.           0.       
    2.07500n      0.           0.           0.           0.           0.           0.       
    2.08000n      0.           0.           0.           0.           0.           0.       
    2.08500n      0.           0.           0.           0.           0.           0.       
    2.09000n      0.           0.           0.           0.           0.           0.       
    2.09500n      0.           0.           0.           0.           0.           0.       
    2.10000n      0.           0.           0.           0.           0.           0.       
    2.10500n      0.           0.           0.           0.           0.           0.       
    2.11000n      0.           0.           0.           0.           0.           0.       
    2.11500n      0.           0.           0.           0.           0.           0.       
    2.12000n      0.           0.           0.           0.           0.           0.       
    2.12500n      0.           0.           0.           0.           0.           0.       
    2.13000n      0.           0.           0.           0.           0.           0.       
    2.13500n      0.           0.           0.           0.           0.           0.       
    2.14000n      0.           0.           0.           0.           0.           0.       
    2.14500n      0.           0.           0.           0.           0.           0.       
    2.15000n      0.           0.           0.           0.           0.           0.       
    2.15500n      0.           0.           0.           0.           0.           0.       
    2.16000n      0.           0.           0.           0.           0.           0.       
    2.16500n      0.           0.           0.           0.           0.           0.       
    2.17000n      0.           0.           0.           0.           0.           0.       
    2.17500n      0.           0.           0.           0.           0.           0.       
    2.18000n      0.           0.           0.           0.           0.           0.       
    2.18500n      0.           0.           0.           0.           0.           0.       
    2.19000n      0.           0.           0.           0.           0.           0.       
    2.19500n      0.           0.           0.           0.           0.           0.       
    2.20000n      0.           0.           0.           0.           0.           0.       
    2.20500n      0.           0.           0.           0.           0.           0.       
    2.21000n      0.           0.           0.           0.           0.           0.       
    2.21500n      0.           0.           0.           0.           0.           0.       
    2.22000n      0.           0.           0.           0.           0.           0.       
    2.22500n      0.           0.           0.           0.           0.           0.       
    2.23000n      0.           0.           0.           0.           0.           0.       
    2.23500n      0.           0.           0.           0.           0.           0.       
    2.24000n      0.           0.           0.           0.           0.           0.       
    2.24500n      0.           0.           0.           0.           0.           0.       
    2.25000n      0.           0.           0.           0.           0.           0.       
    2.25500n      0.           0.           0.           0.           0.           0.       
    2.26000n      0.           0.           0.           0.           0.           0.       
    2.26500n      0.           0.           0.           0.           0.           0.       
    2.27000n      0.           0.           0.           0.           0.           0.       
    2.27500n      0.           0.           0.           0.           0.           0.       
    2.28000n      0.           0.           0.           0.           0.           0.       
    2.28500n      0.           0.           0.           0.           0.           0.       
    2.29000n      0.           0.           0.           0.           0.           0.       
    2.29500n      0.           0.           0.           0.           0.           0.       
    2.30000n      0.           0.           0.           0.           0.           0.       
    2.30500n      0.           0.           0.           0.           0.           0.       
    2.31000n      0.           0.           0.           0.           0.           0.       
    2.31500n      0.           0.           0.           0.           0.           0.       
    2.32000n      0.           0.           0.           0.           0.           0.       
    2.32500n      0.           0.           0.           0.           0.           0.       
    2.33000n      0.           0.           0.           0.           0.           0.       
    2.33500n      0.           0.           0.           0.           0.           0.       
    2.34000n      0.           0.           0.           0.           0.           0.       
    2.34500n      0.           0.           0.           0.           0.           0.       
    2.35000n      0.           0.           0.           0.           0.           0.       
    2.35500n      0.           0.           0.           0.           0.           0.       
    2.36000n      0.           0.           0.           0.           0.           0.       
    2.36500n      0.           0.           0.           0.           0.           0.       
    2.37000n      0.           0.           0.           0.           0.           0.       
    2.37500n      0.           0.           0.           0.           0.           0.       
    2.38000n      0.           0.           0.           0.           0.           0.       
    2.38500n      0.           0.           0.           0.           0.           0.       
    2.39000n      0.           0.           0.           0.           0.           0.       
    2.39500n      0.           0.           0.           0.           0.           0.       
    2.40000n      0.           0.           0.           0.           0.           0.       
    2.40500n      0.           0.           0.           0.           0.           0.       
    2.41000n      0.           0.           0.           0.           0.           0.       
    2.41500n      0.           0.           0.           0.           0.           0.       
    2.42000n      0.           0.           0.           0.           0.           0.       
    2.42500n      0.           0.           0.           0.           0.           0.       
    2.43000n      0.           0.           0.           0.           0.           0.       
    2.43500n      0.           0.           0.           0.           0.           0.       
    2.44000n      0.           0.           0.           0.           0.           0.       
    2.44500n      0.           0.           0.           0.           0.           0.       
    2.45000n      0.           0.           0.           0.           0.           0.       
    2.45500n      0.           0.           0.           0.           0.           0.       
    2.46000n      0.           0.           0.           0.           0.           0.       
    2.46500n      0.           0.           0.           0.           0.           0.       
    2.47000n      0.           0.           0.           0.           0.           0.       
    2.47500n      0.           0.           0.           0.           0.           0.       
    2.48000n      0.           0.           0.           0.           0.           0.       
    2.48500n      0.           0.           0.           0.           0.           0.       
    2.49000n      0.           0.           0.           0.           0.           0.       
    2.49500n      0.           0.           0.           0.           0.           0.       
    2.50000n      0.           0.           0.           0.           0.           0.       
    2.50500n      0.           0.           0.           0.           0.           0.       
    2.51000n      0.           0.           0.           0.           0.           0.       
    2.51500n      0.           0.           0.           0.           0.           0.       
    2.52000n      0.           0.           0.           0.           0.           0.       
    2.52500n      0.           0.           0.           0.           0.           0.       
    2.53000n      0.           0.           0.           0.           0.           0.       
    2.53500n      0.           0.           0.           0.           0.           0.       
    2.54000n      0.           0.           0.           0.           0.           0.       
    2.54500n      0.           0.           0.           0.           0.           0.       
    2.55000n      0.           0.           0.           0.           0.           0.       
    2.55500n      0.           0.           0.           0.           0.           0.       
    2.56000n      0.           0.           0.           0.           0.           0.       
    2.56500n      0.           0.           0.           0.           0.           0.       
    2.57000n      0.           0.           0.           0.           0.           0.       
    2.57500n      0.           0.           0.           0.           0.           0.       
    2.58000n      0.           0.           0.           0.           0.           0.       
    2.58500n      0.           0.           0.           0.           0.           0.       
    2.59000n      0.           0.           0.           0.           0.           0.       
    2.59500n      0.           0.           0.           0.           0.           0.       
    2.60000n      0.           0.           0.           0.           0.           0.       
    2.60500n      0.           0.           0.           0.           0.           0.       
    2.61000n      0.           0.           0.           0.           0.           0.       
    2.61500n      0.           0.           0.           0.           0.           0.       
    2.62000n      0.           0.           0.           0.           0.           0.       
    2.62500n      0.           0.           0.           0.           0.           0.       
    2.63000n      0.           0.           0.           0.           0.           0.       
    2.63500n      0.           0.           0.           0.           0.           0.       
    2.64000n      0.           0.           0.           0.           0.           0.       
    2.64500n      0.           0.           0.           0.           0.           0.       
    2.65000n      0.           0.           0.           0.           0.           0.       
    2.65500n      0.           0.           0.           0.           0.           0.       
    2.66000n      0.           0.           0.           0.           0.           0.       
    2.66500n      0.           0.           0.           0.           0.           0.       
    2.67000n      0.           0.           0.           0.           0.           0.       
    2.67500n      0.           0.           0.           0.           0.           0.       
    2.68000n      0.           0.           0.           0.           0.           0.       
    2.68500n      0.           0.           0.           0.           0.           0.       
    2.69000n      0.           0.           0.           0.           0.           0.       
    2.69500n      0.           0.           0.           0.           0.           0.       
    2.70000n      0.           0.           0.           0.           0.           0.       
    2.70500n      0.           0.           0.           0.           0.           0.       
    2.71000n      0.           0.           0.           0.           0.           0.       
    2.71500n      0.           0.           0.           0.           0.           0.       
    2.72000n      0.           0.           0.           0.           0.           0.       
    2.72500n      0.           0.           0.           0.           0.           0.       
    2.73000n      0.           0.           0.           0.           0.           0.       
    2.73500n      0.           0.           0.           0.           0.           0.       
    2.74000n      0.           0.           0.           0.           0.           0.       
    2.74500n      0.           0.           0.           0.           0.           0.       
    2.75000n      0.           0.           0.           0.           0.           0.       
    2.75500n      0.           0.           0.           0.           0.           0.       
    2.76000n      0.           0.           0.           0.           0.           0.       
    2.76500n      0.           0.           0.           0.           0.           0.       
    2.77000n      0.           0.           0.           0.           0.           0.       
    2.77500n      0.           0.           0.           0.           0.           0.       
    2.78000n      0.           0.           0.           0.           0.           0.       
    2.78500n      0.           0.           0.           0.           0.           0.       
    2.79000n      0.           0.           0.           0.           0.           0.       
    2.79500n      0.           0.           0.           0.           0.           0.       
    2.80000n      0.           0.           0.           0.           0.           0.       
    2.80500n      0.           0.           0.           0.           0.           0.       
    2.81000n      0.           0.           0.           0.           0.           0.       
    2.81500n      0.           0.           0.           0.           0.           0.       
    2.82000n      0.           0.           0.           0.           0.           0.       
    2.82500n      0.           0.           0.           0.           0.           0.       
    2.83000n      0.           0.           0.           0.           0.           0.       
    2.83500n      0.           0.           0.           0.           0.           0.       
    2.84000n      0.           0.           0.           0.           0.           0.       
    2.84500n      0.           0.           0.           0.           0.           0.       
    2.85000n      0.           0.           0.           0.           0.           0.       
    2.85500n      0.           0.           0.           0.           0.           0.       
    2.86000n      0.           0.           0.           0.           0.           0.       
    2.86500n      0.           0.           0.           0.           0.           0.       
    2.87000n      0.           0.           0.           0.           0.           0.       
    2.87500n      0.           0.           0.           0.           0.           0.       
    2.88000n      0.           0.           0.           0.           0.           0.       
    2.88500n      0.           0.           0.           0.           0.           0.       
    2.89000n      0.           0.           0.           0.           0.           0.       
    2.89500n      0.           0.           0.           0.           0.           0.       
    2.90000n      0.           0.           0.           0.           0.           0.       
    2.90500n      0.           0.           0.           0.           0.           0.       
    2.91000n      0.           0.           0.           0.           0.           0.       
    2.91500n      0.           0.           0.           0.           0.           0.       
    2.92000n      0.           0.           0.           0.           0.           0.       
    2.92500n      0.           0.           0.           0.           0.           0.       
    2.93000n      0.           0.           0.           0.           0.           0.       
    2.93500n      0.           0.           0.           0.           0.           0.       
    2.94000n      0.           0.           0.           0.           0.           0.       
    2.94500n      0.           0.           0.           0.           0.           0.       
    2.95000n      0.           0.           0.           0.           0.           0.       
    2.95500n      0.           0.           0.           0.           0.           0.       
    2.96000n      0.           0.           0.           0.           0.           0.       
    2.96500n      0.           0.           0.           0.           0.           0.       
    2.97000n      0.           0.           0.           0.           0.           0.       
    2.97500n      0.           0.           0.           0.           0.           0.       
    2.98000n      0.           0.           0.           0.           0.           0.       
    2.98500n      0.           0.           0.           0.           0.           0.       
    2.99000n      0.           0.           0.           0.           0.           0.       
    2.99500n      0.           0.           0.           0.           0.           0.       
    3.00000n      0.           0.           0.           0.           0.           0.       
    3.00500n      0.           0.           0.           0.           0.           0.       
    3.01000n      0.           0.           0.           0.           0.           0.       
    3.01500n      0.           0.           0.           0.           0.           0.       
    3.02000n      0.           0.           0.           0.           0.           0.       
    3.02500n      0.           0.           0.           0.           0.           0.       
    3.03000n      0.           0.           0.           0.           0.           0.       
    3.03500n      0.           0.           0.           0.           0.           0.       
    3.04000n      0.           0.           0.           0.           0.           0.       
    3.04500n      0.           0.           0.           0.           0.           0.       
    3.05000n      0.           0.           0.           0.           0.           0.       
    3.05500n      0.           0.           0.           0.           0.           0.       
    3.06000n      0.           0.           0.           0.           0.           0.       
    3.06500n      0.           0.           0.           0.           0.           0.       
    3.07000n      0.           0.           0.           0.           0.           0.       
    3.07500n      0.           0.           0.           0.           0.           0.       
    3.08000n      0.           0.           0.           0.           0.           0.       
    3.08500n      0.           0.           0.           0.           0.           0.       
    3.09000n      0.           0.           0.           0.           0.           0.       
    3.09500n      0.           0.           0.           0.           0.           0.       
    3.10000n      0.           0.           0.           0.           0.           0.       
    3.10500n      0.           0.           0.           0.           0.           0.       
    3.11000n      0.           0.           0.           0.           0.           0.       
    3.11500n      0.           0.           0.           0.           0.           0.       
    3.12000n      0.           0.           0.           0.           0.           0.       
    3.12500n      0.           0.           0.           0.           0.           0.       
    3.13000n      0.           0.           0.           0.           0.           0.       
    3.13500n      0.           0.           0.           0.           0.           0.       
    3.14000n      0.           0.           0.           0.           0.           0.       
    3.14500n      0.           0.           0.           0.           0.           0.       
    3.15000n      0.           0.           0.           0.           0.           0.       
    3.15500n      0.           0.           0.           0.           0.           0.       
    3.16000n      0.           0.           0.           0.           0.           0.       
    3.16500n      0.           0.           0.           0.           0.           0.       
    3.17000n      0.           0.           0.           0.           0.           0.       
    3.17500n      0.           0.           0.           0.           0.           0.       
    3.18000n      0.           0.           0.           0.           0.           0.       
    3.18500n      0.           0.           0.           0.           0.           0.       
    3.19000n      0.           0.           0.           0.           0.           0.       
    3.19500n      0.           0.           0.           0.           0.           0.       
    3.20000n      0.           0.           0.           0.           0.           0.       
    3.20500n      0.           0.           0.           0.           0.           0.       
    3.21000n      0.           0.           0.           0.           0.           0.       
    3.21500n      0.           0.           0.           0.           0.           0.       
    3.22000n      0.           0.           0.           0.           0.           0.       
    3.22500n      0.           0.           0.           0.           0.           0.       
    3.23000n      0.           0.           0.           0.           0.           0.       
    3.23500n      0.           0.           0.           0.           0.           0.       
    3.24000n      0.           0.           0.           0.           0.           0.       
    3.24500n      0.           0.           0.           0.           0.           0.       
    3.25000n      0.           0.           0.           0.           0.           0.       
    3.25500n      0.           0.           0.           0.           0.           0.       
    3.26000n      0.           0.           0.           0.           0.           0.       
    3.26500n      0.           0.           0.           0.           0.           0.       
    3.27000n      0.           0.           0.           0.           0.           0.       
    3.27500n      0.           0.           0.           0.           0.           0.       
    3.28000n      0.           0.           0.           0.           0.           0.       
    3.28500n      0.           0.           0.           0.           0.           0.       
    3.29000n      0.           0.           0.           0.           0.           0.       
    3.29500n      0.           0.           0.           0.           0.           0.       
    3.30000n      0.           0.           0.           0.           0.           0.       
    3.30500n      0.           0.           0.           0.           0.           0.       
    3.31000n      0.           0.           0.           0.           0.           0.       
    3.31500n      0.           0.           0.           0.           0.           0.       
    3.32000n      0.           0.           0.           0.           0.           0.       
    3.32500n      0.           0.           0.           0.           0.           0.       
    3.33000n      0.           0.           0.           0.           0.           0.       
    3.33500n      0.           0.           0.           0.           0.           0.       
    3.34000n      0.           0.           0.           0.           0.           0.       
    3.34500n      0.           0.           0.           0.           0.           0.       
    3.35000n      0.           0.           0.           0.           0.           0.       
    3.35500n      0.           0.           0.           0.           0.           0.       
    3.36000n      0.           0.           0.           0.           0.           0.       
    3.36500n      0.           0.           0.           0.           0.           0.       
    3.37000n      0.           0.           0.           0.           0.           0.       
    3.37500n      0.           0.           0.           0.           0.           0.       
    3.38000n      0.           0.           0.           0.           0.           0.       
    3.38500n      0.           0.           0.           0.           0.           0.       
    3.39000n      0.           0.           0.           0.           0.           0.       
    3.39500n      0.           0.           0.           0.           0.           0.       
    3.40000n      0.           0.           0.           0.           0.           0.       
    3.40500n      0.           0.           0.           0.           0.           0.       
    3.41000n      0.           0.           0.           0.           0.           0.       
    3.41500n      0.           0.           0.           0.           0.           0.       
    3.42000n      0.           0.           0.           0.           0.           0.       
    3.42500n      0.           0.           0.           0.           0.           0.       
    3.43000n      0.           0.           0.           0.           0.           0.       
    3.43500n      0.           0.           0.           0.           0.           0.       
    3.44000n      0.           0.           0.           0.           0.           0.       
    3.44500n      0.           0.           0.           0.           0.           0.       
    3.45000n      0.           0.           0.           0.           0.           0.       
    3.45500n      0.           0.           0.           0.           0.           0.       
    3.46000n      0.           0.           0.           0.           0.           0.       
    3.46500n      0.           0.           0.           0.           0.           0.       
    3.47000n      0.           0.           0.           0.           0.           0.       
    3.47500n      0.           0.           0.           0.           0.           0.       
    3.48000n      0.           0.           0.           0.           0.           0.       
    3.48500n      0.           0.           0.           0.           0.           0.       
    3.49000n      0.           0.           0.           0.           0.           0.       
    3.49500n      0.           0.           0.           0.           0.           0.       
    3.50000n      0.           0.           0.           0.           0.           0.       
    3.50500n      0.           0.           0.           0.           0.           0.       
    3.51000n      0.           0.           0.           0.           0.           0.       
    3.51500n      0.           0.           0.           0.           0.           0.       
    3.52000n      0.           0.           0.           0.           0.           0.       
    3.52500n      0.           0.           0.           0.           0.           0.       
    3.53000n      0.           0.           0.           0.           0.           0.       
    3.53500n      0.           0.           0.           0.           0.           0.       
    3.54000n      0.           0.           0.           0.           0.           0.       
    3.54500n      0.           0.           0.           0.           0.           0.       
    3.55000n      0.           0.           0.           0.           0.           0.       
    3.55500n      0.           0.           0.           0.           0.           0.       
    3.56000n      0.           0.           0.           0.           0.           0.       
    3.56500n      0.           0.           0.           0.           0.           0.       
    3.57000n      0.           0.           0.           0.           0.           0.       
    3.57500n      0.           0.           0.           0.           0.           0.       
    3.58000n      0.           0.           0.           0.           0.           0.       
    3.58500n      0.           0.           0.           0.           0.           0.       
    3.59000n      0.           0.           0.           0.           0.           0.       
    3.59500n      0.           0.           0.           0.           0.           0.       
    3.60000n      0.           0.           0.           0.           0.           0.       
    3.60500n      0.           0.           0.           0.           0.           0.       
    3.61000n      0.           0.           0.           0.           0.           0.       
    3.61500n      0.           0.           0.           0.           0.           0.       
    3.62000n      0.           0.           0.           0.           0.           0.       
    3.62500n      0.           0.           0.           0.           0.           0.       
    3.63000n      0.           0.           0.           0.           0.           0.       
    3.63500n      0.           0.           0.           0.           0.           0.       
    3.64000n      0.           0.           0.           0.           0.           0.       
    3.64500n      0.           0.           0.           0.           0.           0.       
    3.65000n      0.           0.           0.           0.           0.           0.       
    3.65500n      0.           0.           0.           0.           0.           0.       
    3.66000n      0.           0.           0.           0.           0.           0.       
    3.66500n      0.           0.           0.           0.           0.           0.       
    3.67000n      0.           0.           0.           0.           0.           0.       
    3.67500n      0.           0.           0.           0.           0.           0.       
    3.68000n      0.           0.           0.           0.           0.           0.       
    3.68500n      0.           0.           0.           0.           0.           0.       
    3.69000n      0.           0.           0.           0.           0.           0.       
    3.69500n      0.           0.           0.           0.           0.           0.       
    3.70000n      0.           0.           0.           0.           0.           0.       
    3.70500n      0.           0.           0.           0.           0.           0.       
    3.71000n      0.           0.           0.           0.           0.           0.       
    3.71500n      0.           0.           0.           0.           0.           0.       
    3.72000n      0.           0.           0.           0.           0.           0.       
    3.72500n      0.           0.           0.           0.           0.           0.       
    3.73000n      0.           0.           0.           0.           0.           0.       
    3.73500n      0.           0.           0.           0.           0.           0.       
    3.74000n      0.           0.           0.           0.           0.           0.       
    3.74500n      0.           0.           0.           0.           0.           0.       
    3.75000n      0.           0.           0.           0.           0.           0.       
    3.75500n      0.           0.           0.           0.           0.           0.       
    3.76000n      0.           0.           0.           0.           0.           0.       
    3.76500n      0.           0.           0.           0.           0.           0.       
    3.77000n      0.           0.           0.           0.           0.           0.       
    3.77500n      0.           0.           0.           0.           0.           0.       
    3.78000n      0.           0.           0.           0.           0.           0.       
    3.78500n      0.           0.           0.           0.           0.           0.       
    3.79000n      0.           0.           0.           0.           0.           0.       
    3.79500n      0.           0.           0.           0.           0.           0.       
    3.80000n      0.           0.           0.           0.           0.           0.       
    3.80500n      0.           0.           0.           0.           0.           0.       
    3.81000n      0.           0.           0.           0.           0.           0.       
    3.81500n      0.           0.           0.           0.           0.           0.       
    3.82000n      0.           0.           0.           0.           0.           0.       
    3.82500n      0.           0.           0.           0.           0.           0.       
    3.83000n      0.           0.           0.           0.           0.           0.       
    3.83500n      0.           0.           0.           0.           0.           0.       
    3.84000n      0.           0.           0.           0.           0.           0.       
    3.84500n      0.           0.           0.           0.           0.           0.       
    3.85000n      0.           0.           0.           0.           0.           0.       
    3.85500n      0.           0.           0.           0.           0.           0.       
    3.86000n      0.           0.           0.           0.           0.           0.       
    3.86500n      0.           0.           0.           0.           0.           0.       
    3.87000n      0.           0.           0.           0.           0.           0.       
    3.87500n      0.           0.           0.           0.           0.           0.       
    3.88000n      0.           0.           0.           0.           0.           0.       
    3.88500n      0.           0.           0.           0.           0.           0.       
    3.89000n      0.           0.           0.           0.           0.           0.       
    3.89500n      0.           0.           0.           0.           0.           0.       
    3.90000n      0.           0.           0.           0.           0.           0.       
    3.90500n      0.           0.           0.           0.           0.           0.       
    3.91000n      0.           0.           0.           0.           0.           0.       
    3.91500n      0.           0.           0.           0.           0.           0.       
    3.92000n      0.           0.           0.           0.           0.           0.       
    3.92500n      0.           0.           0.           0.           0.           0.       
    3.93000n      0.           0.           0.           0.           0.           0.       
    3.93500n      0.           0.           0.           0.           0.           0.       
    3.94000n      0.           0.           0.           0.           0.           0.       
    3.94500n      0.           0.           0.           0.           0.           0.       
    3.95000n      0.           0.           0.           0.           0.           0.       
    3.95500n      0.           0.           0.           0.           0.           0.       
    3.96000n      0.           0.           0.           0.           0.           0.       
    3.96500n      0.           0.           0.           0.           0.           0.       
    3.97000n      0.           0.           0.           0.           0.           0.       
    3.97500n      0.           0.           0.           0.           0.           0.       
    3.98000n      0.           0.           0.           0.           0.           0.       
    3.98500n      0.           0.           0.           0.           0.           0.       
    3.99000n      0.           0.           0.           0.           0.           0.       
    3.99500n      0.           0.           0.           0.           0.           0.       
    4.00000n      0.           0.           0.           0.           0.           0.       
    4.00500n      0.           0.           0.           0.           0.           0.       
    4.01000n      0.           0.           0.           0.           0.           0.       
    4.01500n      0.           0.           0.           0.           0.           0.       
    4.02000n      0.           0.           0.           0.           0.           0.       
    4.02500n      0.           0.           0.           0.           0.           0.       
    4.03000n      0.           0.           0.           0.           0.           0.       
    4.03500n      0.           0.           0.           0.           0.           0.       
    4.04000n      0.           0.           0.           0.           0.           0.       
    4.04500n      0.           0.           0.           0.           0.           0.       
    4.05000n      0.           0.           0.           0.           0.           0.       
    4.05500n      0.           0.           0.           0.           0.           0.       
    4.06000n      0.           0.           0.           0.           0.           0.       
    4.06500n      0.           0.           0.           0.           0.           0.       
    4.07000n      0.           0.           0.           0.           0.           0.       
    4.07500n      0.           0.           0.           0.           0.           0.       
    4.08000n      0.           0.           0.           0.           0.           0.       
    4.08500n      0.           0.           0.           0.           0.           0.       
    4.09000n      0.           0.           0.           0.           0.           0.       
    4.09500n      0.           0.           0.           0.           0.           0.       
    4.10000n      0.           0.           0.           0.           0.           0.       
    4.10500n      0.           0.           0.           0.           0.           0.       
    4.11000n      0.           0.           0.           0.           0.           0.       
    4.11500n      0.           0.           0.           0.           0.           0.       
    4.12000n      0.           0.           0.           0.           0.           0.       
    4.12500n      0.           0.           0.           0.           0.           0.       
    4.13000n      0.           0.           0.           0.           0.           0.       
    4.13500n      0.           0.           0.           0.           0.           0.       
[...]
  199.04500n     -2.5813u      2.4028u     12.9258u      0.           0.           0.       
  199.05000n     -2.5875u      2.3669u     12.9685u      0.           0.           0.       
  199.05500n     -2.5937u      2.3310u     13.0111u      0.           0.           0.       
  199.06000n     -2.5999u      2.2951u     13.0537u      0.           0.           0.       
  199.06500n     -2.6061u      2.2593u     13.0964u      0.           0.           0.       
  199.07000n     -2.6123u      2.2234u     13.1390u      0.           0.           0.       
  199.07500n     -2.6185u      2.1875u     13.1816u      0.           0.           0.       
  199.08000n     -2.6247u      2.1516u     13.2243u      0.           0.           0.       
  199.08500n     -2.6309u      2.1157u     13.2669u      0.           0.           0.       
  199.09000n     -2.6377u      2.0859u     13.3074u      0.           0.           0.       
  199.09500n     -2.6451u      2.0614u     13.3462u      0.           0.           0.       
  199.10000n     -2.6525u      2.0369u     13.3849u      0.           0.           0.       
  199.10500n     -2.6598u      2.0123u     13.4236u      0.           0.           0.       
  199.11000n     -2.6672u      1.9878u     13.4623u      0.           0.           0.       
  199.11500n     -2.6746u      1.9633u     13.5011u      0.           0.           0.       
  199.12000n     -2.6820u      1.9388u     13.5398u      0.           0.           0.       
  199.12500n     -2.6893u      1.9142u     13.5785u      0.           0.           0.       
  199.13000n     -2.6967u      1.8897u     13.6173u      0.           0.           0.       
  199.13500n     -2.7041u      1.8652u     13.6560u      0.           0.           0.       
  199.14000n     -2.7118u      1.8471u     13.6922u      0.           0.           0.       
  199.14500n     -2.7198u      1.8346u     13.7263u      0.           0.           0.       
  199.15000n     -2.7278u      1.8221u     13.7604u      0.           0.           0.       
  199.15500n     -2.7359u      1.8096u     13.7944u      0.           0.           0.       
  199.16000n     -2.7439u      1.7970u     13.8285u      0.           0.           0.       
  199.16500n     -2.7519u      1.7845u     13.8626u      0.           0.           0.       
  199.17000n     -2.7599u      1.7720u     13.8967u      0.           0.           0.       
  199.17500n     -2.7679u      1.7595u     13.9307u      0.           0.           0.       
  199.18000n     -2.7760u      1.7470u     13.9648u      0.           0.           0.       
  199.18500n     -2.7840u      1.7345u     13.9989u      0.           0.           0.       
  199.19000n     -2.7923u      1.7285u     14.0300u      0.           0.           0.       
  199.19500n     -2.8009u      1.7283u     14.0587u      0.           0.           0.       
  199.20000n     -2.8096u      1.7280u     14.0873u      0.           0.           0.       
  199.20500n     -2.8182u      1.7277u     14.1160u      0.           0.           0.       
  199.21000n     -2.8268u      1.7275u     14.1446u      0.           0.           0.       
  199.21500n     -2.8355u      1.7272u     14.1732u      0.           0.           0.       
  199.22000n     -2.8441u      1.7269u     14.2019u      0.           0.           0.       
  199.22500n     -2.8527u      1.7267u     14.2305u      0.           0.           0.       
  199.23000n     -2.8613u      1.7264u     14.2592u      0.           0.           0.       
  199.23500n     -2.8700u      1.7262u     14.2878u      0.           0.           0.       
  199.24000n     -2.8789u      1.7324u     14.3131u      0.           0.           0.       
  199.24500n     -2.8882u      1.7442u     14.3356u      0.           0.           0.       
  199.25000n     -2.8974u      1.7560u     14.3580u      0.           0.           0.       
  199.25500n     -2.9066u      1.7678u     14.3804u      0.           0.           0.       
  199.26000n     -2.9159u      1.7796u     14.4029u      0.           0.           0.       
  199.26500n     -2.9251u      1.7914u     14.4253u      0.           0.           0.       
  199.27000n     -2.9344u      1.8033u     14.4477u      0.           0.           0.       
  199.27500n     -2.9436u      1.8151u     14.4701u      0.           0.           0.       
  199.28000n     -2.9528u      1.8269u     14.4926u      0.           0.           0.       
  199.28500n     -2.9621u      1.8387u     14.5150u      0.           0.           0.       
  199.29000n     -2.9715u      1.8567u     14.5338u      0.           0.           0.       
  199.29500n     -2.9812u      1.8802u     14.5493u      0.           0.           0.       
  199.30000n     -2.9909u      1.9036u     14.5649u      0.           0.           0.       
  199.30500n     -3.0006u      1.9271u     14.5804u      0.           0.           0.       
  199.31000n     -3.0102u      1.9505u     14.5960u      0.           0.           0.       
  199.31500n     -3.0199u      1.9740u     14.6116u      0.           0.           0.       
  199.32000n     -3.0296u      1.9975u     14.6271u      0.           0.           0.       
  199.32500n     -3.0392u      2.0209u     14.6427u      0.           0.           0.       
  199.33000n     -3.0489u      2.0444u     14.6582u      0.           0.           0.       
  199.33500n     -3.0586u      2.0678u     14.6738u      0.           0.           0.       
  199.34000n     -3.0683u      2.0971u     14.6854u      0.           0.           0.       
  199.34500n     -3.0781u      2.1315u     14.6936u      0.           0.           0.       
  199.35000n     -3.0879u      2.1658u     14.7019u      0.           0.           0.       
  199.35500n     -3.0977u      2.2002u     14.7101u      0.           0.           0.       
  199.36000n     -3.1075u      2.2346u     14.7183u      0.           0.           0.       
  199.36500n     -3.1173u      2.2689u     14.7265u      0.           0.           0.       
  199.37000n     -3.1272u      2.3033u     14.7347u      0.           0.           0.       
  199.37500n     -3.1370u      2.3377u     14.7430u      0.           0.           0.       
  199.38000n     -3.1468u      2.3720u     14.7512u      0.           0.           0.       
  199.38500n     -3.1566u      2.4064u     14.7594u      0.           0.           0.       
  199.39000n     -3.1663u      2.4461u     14.7636u      0.           0.           0.       
  199.39500n     -3.1759u      2.4903u     14.7643u      0.           0.           0.       
  199.40000n     -3.1856u      2.5345u     14.7649u      0.           0.           0.       
  199.40500n     -3.1952u      2.5788u     14.7656u      0.           0.           0.       
  199.41000n     -3.2049u      2.6230u     14.7663u      0.           0.           0.       
  199.41500n     -3.2145u      2.6673u     14.7670u      0.           0.           0.       
  199.42000n     -3.2241u      2.7115u     14.7677u      0.           0.           0.       
  199.42500n     -3.2338u      2.7558u     14.7683u      0.           0.           0.       
  199.43000n     -3.2434u      2.8000u     14.7690u      0.           0.           0.       
  199.43500n     -3.2531u      2.8443u     14.7697u      0.           0.           0.       
  199.44000n     -3.2625u      2.8932u     14.7663u      0.           0.           0.       
  199.44500n     -3.2719u      2.9463u     14.7595u      0.           0.           0.       
  199.45000n     -3.2812u      2.9993u     14.7526u      0.           0.           0.       
  199.45500n     -3.2905u      3.0524u     14.7458u      0.           0.           0.       
  199.46000n     -3.2999u      3.1054u     14.7389u      0.           0.           0.       
  199.46500n     -3.3092u      3.1585u     14.7320u      0.           0.           0.       
  199.47000n     -3.3185u      3.2115u     14.7252u      0.           0.           0.       
  199.47500n     -3.3279u      3.2646u     14.7183u      0.           0.           0.       
  199.48000n     -3.3372u      3.3176u     14.7115u      0.           0.           0.       
  199.48500n     -3.3465u      3.3707u     14.7046u      0.           0.           0.       
  199.49000n     -3.3558u      3.4279u     14.6938u      0.           0.           0.       
  199.49500n     -3.3650u      3.4888u     14.6795u      0.           0.           0.       
  199.50000n     -3.3742u      3.5497u     14.6653u      0.           0.           0.       
  199.50500n     -3.3834u      3.6105u     14.6510u      0.           0.           0.       
  199.51000n     -3.3926u      3.6714u     14.6367u      0.           0.           0.       
  199.51500n     -3.4018u      3.7323u     14.6225u      0.           0.           0.       
  199.52000n     -3.4110u      3.7931u     14.6082u      0.           0.           0.       
  199.52500n     -3.4203u      3.8540u     14.5939u      0.           0.           0.       
  199.53000n     -3.4295u      3.9148u     14.5797u      0.           0.           0.       
  199.53500n     -3.4387u      3.9757u     14.5654u      0.           0.           0.       
  199.54000n     -3.4481u      4.0400u     14.5475u      0.           0.           0.       
  199.54500n     -3.4576u      4.1073u     14.5264u      0.           0.           0.       
  199.55000n     -3.4672u      4.1747u     14.5054u      0.           0.           0.       
  199.55500n     -3.4768u      4.2420u     14.4843u      0.           0.           0.       
  199.56000n     -3.4864u      4.3093u     14.4632u      0.           0.           0.       
  199.56500n     -3.4959u      4.3766u     14.4421u      0.           0.           0.       
  199.57000n     -3.5055u      4.4439u     14.4211u      0.           0.           0.       
  199.57500n     -3.5151u      4.5112u     14.4000u      0.           0.           0.       
  199.58000n     -3.5246u      4.5786u     14.3789u      0.           0.           0.       
  199.58500n     -3.5343u      4.6479u     14.3550u      0.           0.           0.       
  199.59000n     -3.5442u      4.7197u     14.3274u      0.           0.           0.       
  199.59500n     -3.5541u      4.7915u     14.2998u      0.           0.           0.       
  199.60000n     -3.5639u      4.8634u     14.2722u      0.           0.           0.       
  199.60500n     -3.5738u      4.9352u     14.2446u      0.           0.           0.       
  199.61000n     -3.5836u      5.0070u     14.2170u      0.           0.           0.       
  199.61500n     -3.5935u      5.0788u     14.1894u      0.           0.           0.       
  199.62000n     -3.6034u      5.1507u     14.1618u      0.           0.           0.       
  199.62500n     -3.6132u      5.2225u     14.1342u      0.           0.           0.       
  199.63000n     -3.6231u      5.2943u     14.1066u      0.           0.           0.       
  199.63500n     -3.6332u      5.3675u     14.0763u      0.           0.           0.       
  199.64000n     -3.6437u      5.4423u     14.0425u      0.           0.           0.       
  199.64500n     -3.6541u      5.5171u     14.0087u      0.           0.           0.       
  199.65000n     -3.6646u      5.5919u     13.9749u      0.           0.           0.       
  199.65500n     -3.6751u      5.6667u     13.9411u      0.           0.           0.       
  199.66000n     -3.6855u      5.7416u     13.9073u      0.           0.           0.       
  199.66500n     -3.6960u      5.8164u     13.8735u      0.           0.           0.       
  199.67000n     -3.7065u      5.8912u     13.8397u      0.           0.           0.       
  199.67500n     -3.7170u      5.9660u     13.8059u      0.           0.           0.       
  199.68000n     -3.7274u      6.0408u     13.7720u      0.           0.           0.       
  199.68500n     -3.7381u      6.1160u     13.7358u      0.           0.           0.       
  199.69000n     -3.7489u      6.1917u     13.6964u      0.           0.           0.       
  199.69500n     -3.7598u      6.2674u     13.6570u      0.           0.           0.       
  199.70000n     -3.7707u      6.3431u     13.6176u      0.           0.           0.       
  199.70500n     -3.7815u      6.4187u     13.5782u      0.           0.           0.       
  199.71000n     -3.7924u      6.4944u     13.5388u      0.           0.           0.       
  199.71500n     -3.8033u      6.5701u     13.4994u      0.           0.           0.       
  199.72000n     -3.8141u      6.6457u     13.4600u      0.           0.           0.       
  199.72500n     -3.8250u      6.7214u     13.4205u      0.           0.           0.       
  199.73000n     -3.8359u      6.7971u     13.3811u      0.           0.           0.       
  199.73500n     -3.8469u      6.8723u     13.3396u      0.           0.           0.       
  199.74000n     -3.8579u      6.9470u     13.2954u      0.           0.           0.       
  199.74500n     -3.8690u      7.0217u     13.2511u      0.           0.           0.       
  199.75000n     -3.8801u      7.0963u     13.2068u      0.           0.           0.       
  199.75500n     -3.8912u      7.1710u     13.1626u      0.           0.           0.       
  199.76000n     -3.9023u      7.2457u     13.1183u      0.           0.           0.       
  199.76500n     -3.9134u      7.3203u     13.0741u      0.           0.           0.       
  199.77000n     -3.9245u      7.3950u     13.0298u      0.           0.           0.       
  199.77500n     -3.9356u      7.4697u     12.9856u      0.           0.           0.       
  199.78000n     -3.9466u      7.5443u     12.9413u      0.           0.           0.       
  199.78500n     -3.9582u      7.6179u     12.8953u      0.           0.           0.       
  199.79000n     -3.9703u      7.6900u     12.8472u      0.           0.           0.       
  199.79500n     -3.9825u      7.7621u     12.7990u      0.           0.           0.       
  199.80000n     -3.9946u      7.8343u     12.7508u      0.           0.           0.       
  199.80500n     -4.0068u      7.9064u     12.7026u      0.           0.           0.       
  199.81000n     -4.0189u      7.9785u     12.6545u      0.           0.           0.       
  199.81500n     -4.0311u      8.0507u     12.6063u      0.           0.           0.       
  199.82000n     -4.0432u      8.1228u     12.5581u      0.           0.           0.       
  199.82500n     -4.0554u      8.1949u     12.5099u      0.           0.           0.       
  199.83000n     -4.0675u      8.2671u     12.4617u      0.           0.           0.       
  199.83500n     -4.0805u      8.3388u     12.4127u      0.           0.           0.       
  199.84000n     -4.0947u      8.4102u     12.3625u      0.           0.           0.       
  199.84500n     -4.1089u      8.4815u     12.3123u      0.           0.           0.       
  199.85000n     -4.1230u      8.5528u     12.2621u      0.           0.           0.       
  199.85500n     -4.1371u      8.6239u     12.2119u      0.           0.           0.       
  199.86000n     -4.1504u      8.6887u     12.1600u      0.           0.           0.       
  199.86500n     -4.1636u      8.7534u     12.1082u      0.           0.           0.       
  199.87000n     -4.1768u      8.8182u     12.0563u      0.           0.           0.       
  199.87500n     -4.1901u      8.8829u     12.0044u      0.           0.           0.       
  199.88000n     -4.2033u      8.9477u     11.9525u      0.           0.           0.       
  199.88500n     -4.2165u      9.0125u     11.9007u      0.           0.           0.       
  199.89000n     -4.2298u      9.0772u     11.8488u      0.           0.           0.       
  199.89500n     -4.2430u      9.1420u     11.7969u      0.           0.           0.       
  199.90000n     -4.2562u      9.2067u     11.7450u      0.           0.           0.       
  199.90500n     -4.2695u      9.2713u     11.6931u      0.           0.           0.       
  199.91000n     -4.2850u      9.3304u     11.6402u      0.           0.           0.       
  199.91500n     -4.3004u      9.3894u     11.5874u      0.           0.           0.       
  199.92000n     -4.3158u      9.4484u     11.5345u      0.           0.           0.       
  199.92500n     -4.3313u      9.5075u     11.4816u      0.           0.           0.       
  199.93000n     -4.3467u      9.5665u     11.4287u      0.           0.           0.       
  199.93500n     -4.3622u      9.6255u     11.3759u      0.           0.           0.       
  199.94000n     -4.3776u      9.6846u     11.3230u      0.           0.           0.       
  199.94500n     -4.3930u      9.7436u     11.2701u      0.           0.           0.       
  199.95000n     -4.4085u      9.8026u     11.2172u      0.           0.           0.       
  199.95500n     -4.4239u      9.8614u     11.1643u      0.           0.           0.       
  199.96000n     -4.4411u      9.9131u     11.1116u      0.           0.           0.       
  199.96500n     -4.4582u      9.9647u     11.0589u      0.           0.           0.       
  199.97000n     -4.4753u     10.0164u     11.0062u      0.           0.           0.       
  199.97500n     -4.4925u     10.0680u     10.9534u      0.           0.           0.       
  199.98000n     -4.5096u     10.1197u     10.9007u      0.           0.           0.       
  199.98500n     -4.5267u     10.1713u     10.8480u      0.           0.           0.       
  199.99000n     -4.5438u     10.2230u     10.7953u      0.           0.           0.       
  199.99500n     -4.5610u     10.2746u     10.7425u      0.           0.           0.       
  200.00000n     -4.5781u     10.3263u     10.6898u      0.           0.           0.       
y

          ***** job concluded
1****** HSPICE -- J-2014.09-SP1-2 64-BIT (Jan 29 2015) RHEL64 ******            
 ******  
 ******************** stl ver 2.3 t element basic model ********************

 ****** job statistics summary tnom=  25.000 temp=  25.000 ******
  
  
 ******  Machine Information  ******
 CPU:
 model name	: Intel(R) Xeon(R) CPU           W3520  @ 2.67GHz
 cpu MHz	: 2659.971
  
 OS:
 Linux version 3.10.0-327.18.2.el7.x86_64 (builder@kbuilder.dev.centos.org) (gcc version 4.8.3 20140911 (Red Hat 4.8.3-9) (GCC) ) #1 SMP Thu May 12 11:03:55 UTC 2016


  ******  HSPICE Threads Information  ******

  Command Line Threads Count :     1
  Available CPU Count        :     4
  Actual Threads Count       :     1


  ******  Circuit Statistics  ******
  # nodes       =      25 # elements   =      28
  # resistors   =       4 # capacitors =       2 # inductors   =       2
  # mutual_inds =       0 # vccs       =       0 # vcvs        =       0
  # cccs        =       0 # ccvs       =       0 # volt_srcs   =       2
  # curr_srcs   =       0 # diodes     =       0 # bjts        =       0
  # jfets       =       0 # mosfets    =       0 # U elements  =       0
  # T elements  =       3 # W elements =      15 # B elements  =       0
  # S elements  =       0 # P elements =       0 # va device   =       0
  # vector_srcs =       0 # N elements =       0


  ******  Runtime Statistics (seconds)  ******

  analysis           time    # points   tot. iter  conv.iter
  op point           0.00           1           4
  transient          0.91       40001       11722        5861 rev=       567
  readin             0.01
  errchk             0.07
  setup              0.00
  output             0.09


           peak memory used        172.38 megabytes
           total cpu time            1.08 seconds
           total elapsed time        1.68 seconds
           job started at     21:51:52 12/22/2018
           job ended   at     21:51:54 12/22/2018


 lic: Release hspice token(s) 
 lic: total license checkout elapse time:        0.59(s)
