 ****** HSPICE -- J-2014.09-SP1-2 64-BIT (Jan 29 2015) RHEL64 ******            
  Copyright (C) 2014 Synopsys, Inc. All Rights Reserved.                        
  Unpublished-rights reserved under US copyright laws.
  This program is protected by law and is subject to the
  terms and conditions of the license agreement from Synopsys.
  Use of this program is your acceptance to be bound by the
  license agreement. HSPICE is the trademark of Synopsys, Inc.
  Input File: template_W.sp                                                     
  Command line options: template_W.sp -o template_W.lis
 lic:  
 lic: FLEXlm: v10.9.8 
 lic: USER:   odaira               HOSTNAME: 0a4c52628bf8 
 lic: HOSTID: 0242ac110002         PID:      5502 
 lic: Using FLEXlm license file: 
 lic: /usr/synopsys/J-2014.09-SP1-2/admin/license/key 
 lic: Checkout 1 hspice 
 lic: License/Maintenance for hspice will expire on 31-mar-2019/2017.12 
 lic: 78(in_use)/180(total) FLOATING license(s) on SERVER /usr/synopsys/J-2014.09-SP1-2/admin/licens
 lic:   
 Init: read install configuration file: /usr/synopsys/J-2014.09-SP1-2/hspice/meta.cfg

 **warning** It is recommended that you set start explicitly:
             .TRAN tstep tstop START=val


  **info** (template_W.sp:11) DC voltage reset to initial transient source value              in source        0:vs1                 new dc=  0.0000D+00
  
      
 *****************************************************************
 ******  option summary
 ******
 runlvl  = 3         bypass  = 2         

 **info** rebuilding matrix with pivot option

 **info** dc convergence successful at Newton-Raphson method 
1****** HSPICE -- J-2014.09-SP1-2 64-BIT (Jan 29 2015) RHEL64 ******            
 ******  
 ******************** stl ver 2.3 t element basic model ********************

 ****** operating point information tnom=  25.000 temp=  25.000 ******
 ****** operating point status is voltage   simulation time is     0.     
    node    =voltage      node    =voltage      node    =voltage      node    =voltage      node    =voltage

 +0:101     =   0.      0:102     =   0.      0:103     =   0.      0:104     =   0.      0:1001    =   0.     
 +0:1002    =   0.      0:optpt1  =   0.      0:optpt2  =   0.      0:optpt3  =   0.      0:vspt1   =   0.     
 +0:vspt2   =   0.      0:vspt3   =   0.     

 ******  
 ******************** stl ver 2.3 t element basic model ********************

 ****** transient analysis tnom=  25.000 temp=  25.000 ******
x

        time    voltage      voltage      voltage      voltage      voltage      voltage    
                  optpt1       optpt2       optpt3        vspt1        vspt2        vspt3   
    0.            0.           0.           0.           0.           0.           0.       
    5.00000p      0.           0.           0.           0.           0.           0.       
   10.00000p      0.           0.           0.           0.           0.           0.       
   15.00000p      0.           0.           0.           0.           0.           0.       
   20.00000p      0.           0.           0.           0.           0.           0.       
   25.00000p      0.           0.           0.           0.           0.           0.       
   30.00000p      0.           0.           0.           0.           0.           0.       
   35.00000p      0.           0.           0.           0.           0.           0.       
   40.00000p      0.           0.           0.           0.           0.           0.       
   45.00000p      0.           0.           0.           0.           0.           0.       
   50.00000p      0.           0.           0.           0.           0.           0.       
   55.00000p      0.           0.           0.           0.           0.           0.       
   60.00000p      0.           0.           0.           0.           0.           0.       
   65.00000p      0.           0.           0.           0.           0.           0.       
   70.00000p      0.           0.           0.           0.           0.           0.       
   75.00000p      0.           0.           0.           0.           0.           0.       
   80.00000p      0.           0.           0.           0.           0.           0.       
   85.00000p      0.           0.           0.           0.           0.           0.       
   90.00000p      0.           0.           0.           0.           0.           0.       
   95.00000p      0.           0.           0.           0.           0.           0.       
  100.00000p      0.           0.           0.           0.           0.           0.       
  105.00000p      0.           0.           0.           0.           0.           0.       
  110.00000p      0.           0.           0.           0.           0.           0.       
  115.00000p      0.           0.           0.           0.           0.           0.       
  120.00000p      0.           0.           0.           0.           0.           0.       
  125.00000p      0.           0.           0.           0.           0.           0.       
  130.00000p      0.           0.           0.           0.           0.           0.       
  135.00000p      0.           0.           0.           0.           0.           0.       
  140.00000p      0.           0.           0.           0.           0.           0.       
  145.00000p      0.           0.           0.           0.           0.           0.       
  150.00000p      0.           0.           0.           0.           0.           0.       
  155.00000p      0.           0.           0.           0.           0.           0.       
  160.00000p      0.           0.           0.           0.           0.           0.       
  165.00000p      0.           0.           0.           0.           0.           0.       
  170.00000p      0.           0.           0.           0.           0.           0.       
  175.00000p      0.           0.           0.           0.           0.           0.       
  180.00000p      0.           0.           0.           0.           0.           0.       
  185.00000p      0.           0.           0.           0.           0.           0.       
  190.00000p      0.           0.           0.           0.           0.           0.       
  195.00000p      0.           0.           0.           0.           0.           0.       
  200.00000p      0.           0.           0.           0.           0.           0.       
  205.00000p      0.           0.           0.           0.           0.           0.       
  210.00000p      0.           0.           0.           0.           0.           0.       
  215.00000p      0.           0.           0.           0.           0.           0.       
  220.00000p      0.           0.           0.           0.           0.           0.       
  225.00000p      0.           0.           0.           0.           0.           0.       
  230.00000p      0.           0.           0.           0.           0.           0.       
  235.00000p      0.           0.           0.           0.           0.           0.       
  240.00000p      0.           0.           0.           0.           0.           0.       
  245.00000p      0.           0.           0.           0.           0.           0.       
  250.00000p      0.           0.           0.           0.           0.           0.       
  255.00000p      0.           0.           0.           0.           0.           0.       
  260.00000p      0.           0.           0.           0.           0.           0.       
  265.00000p      0.           0.           0.           0.           0.           0.       
  270.00000p      0.           0.           0.           0.           0.           0.       
  275.00000p      0.           0.           0.           0.           0.           0.       
  280.00000p      0.           0.           0.           0.           0.           0.       
  285.00000p      0.           0.           0.           0.           0.           0.       
  290.00000p      0.           0.           0.           0.           0.           0.       
  295.00000p      0.           0.           0.           0.           0.           0.       
  300.00000p      0.           0.           0.           0.           0.           0.       
  305.00000p      0.           0.           0.           0.           0.           0.       
  310.00000p      0.           0.           0.           0.           0.           0.       
  315.00000p      0.           0.           0.           0.           0.           0.       
  320.00000p      0.           0.           0.           0.           0.           0.       
  325.00000p      0.           0.           0.           0.           0.           0.       
  330.00000p      0.           0.           0.           0.           0.           0.       
  335.00000p      0.           0.           0.           0.           0.           0.       
  340.00000p      0.           0.           0.           0.           0.           0.       
  345.00000p      0.           0.           0.           0.           0.           0.       
  350.00000p      0.           0.           0.           0.           0.           0.       
  355.00000p      0.           0.           0.           0.           0.           0.       
  360.00000p      0.           0.           0.           0.           0.           0.       
  365.00000p      0.           0.           0.           0.           0.           0.       
  370.00000p      0.           0.           0.           0.           0.           0.       
  375.00000p      0.           0.           0.           0.           0.           0.       
  380.00000p      0.           0.           0.           0.           0.           0.       
  385.00000p      0.           0.           0.           0.           0.           0.       
  390.00000p      0.           0.           0.           0.           0.           0.       
  395.00000p      0.           0.           0.           0.           0.           0.       
  400.00000p      0.           0.           0.           0.           0.           0.       
  405.00000p      0.           0.           0.           0.           0.           0.       
  410.00000p      0.           0.           0.           0.           0.           0.       
  415.00000p      0.           0.           0.           0.           0.           0.       
  420.00000p      0.           0.           0.           0.           0.           0.       
  425.00000p      0.           0.           0.           0.           0.           0.       
  430.00000p      0.           0.           0.           0.           0.           0.       
  435.00000p      0.           0.           0.           0.           0.           0.       
  440.00000p      0.           0.           0.           0.           0.           0.       
  445.00000p      0.           0.           0.           0.           0.           0.       
  450.00000p      0.           0.           0.           0.           0.           0.       
  455.00000p      0.           0.           0.           0.           0.           0.       
  460.00000p      0.           0.           0.           0.           0.           0.       
  465.00000p      0.           0.           0.           0.           0.           0.       
  470.00000p      0.           0.           0.           0.           0.           0.       
  475.00000p      0.           0.           0.           0.           0.           0.       
  480.00000p      0.           0.           0.           0.           0.           0.       
  485.00000p      0.           0.           0.           0.           0.           0.       
  490.00000p      0.           0.           0.           0.           0.           0.       
  495.00000p      0.           0.           0.           0.           0.           0.       
  500.00000p      0.           0.           0.           0.           0.           0.       
  505.00000p      0.           0.           0.           0.           0.           0.       
  510.00000p      0.           0.           0.           0.           0.           0.       
  515.00000p      0.           0.           0.           0.           0.           0.       
  520.00000p      0.           0.           0.           0.           0.           0.       
  525.00000p      0.           0.           0.           0.           0.           0.       
  530.00000p      0.           0.           0.           0.           0.           0.       
  535.00000p      0.           0.           0.           0.           0.           0.       
  540.00000p      0.           0.           0.           0.           0.           0.       
  545.00000p      0.           0.           0.           0.           0.           0.       
  550.00000p      0.           0.           0.           0.           0.           0.       
  555.00000p      0.           0.           0.           0.           0.           0.       
  560.00000p      0.           0.           0.           0.           0.           0.       
  565.00000p      0.           0.           0.           0.           0.           0.       
  570.00000p      0.           0.           0.           0.           0.           0.       
  575.00000p      0.           0.           0.           0.           0.           0.       
  580.00000p      0.           0.           0.           0.           0.           0.       
  585.00000p      0.           0.           0.           0.           0.           0.       
  590.00000p      0.           0.           0.           0.           0.           0.       
  595.00000p      0.           0.           0.           0.           0.           0.       
  600.00000p      0.           0.           0.           0.           0.           0.       
  605.00000p      0.           0.           0.           0.           0.           0.       
  610.00000p      0.           0.           0.           0.           0.           0.       
  615.00000p      0.           0.           0.           0.           0.           0.       
  620.00000p      0.           0.           0.           0.           0.           0.       
  625.00000p      0.           0.           0.           0.           0.           0.       
  630.00000p      0.           0.           0.           0.           0.           0.       
  635.00000p      0.           0.           0.           0.           0.           0.       
  640.00000p      0.           0.           0.           0.           0.           0.       
  645.00000p      0.           0.           0.           0.           0.           0.       
  650.00000p      0.           0.           0.           0.           0.           0.       
  655.00000p      0.           0.           0.           0.           0.           0.       
  660.00000p      0.           0.           0.           0.           0.           0.       
  665.00000p      0.           0.           0.           0.           0.           0.       
  670.00000p      0.           0.           0.           0.           0.           0.       
  675.00000p      0.           0.           0.           0.           0.           0.       
  680.00000p      0.           0.           0.           0.           0.           0.       
  685.00000p      0.           0.           0.           0.           0.           0.       
  690.00000p      0.           0.           0.           0.           0.           0.       
  695.00000p      0.           0.           0.           0.           0.           0.       
  700.00000p      0.           0.           0.           0.           0.           0.       
  705.00000p      0.           0.           0.           0.           0.           0.       
  710.00000p      0.           0.           0.           0.           0.           0.       
  715.00000p      0.           0.           0.           0.           0.           0.       
  720.00000p      0.           0.           0.           0.           0.           0.       
  725.00000p      0.           0.           0.           0.           0.           0.       
  730.00000p      0.           0.           0.           0.           0.           0.       
  735.00000p      0.           0.           0.           0.           0.           0.       
  740.00000p      0.           0.           0.           0.           0.           0.       
  745.00000p      0.           0.           0.           0.           0.           0.       
  750.00000p      0.           0.           0.           0.           0.           0.       
  755.00000p      0.           0.           0.           0.           0.           0.       
  760.00000p      0.           0.           0.           0.           0.           0.       
  765.00000p      0.           0.           0.           0.           0.           0.       
  770.00000p      0.           0.           0.           0.           0.           0.       
  775.00000p      0.           0.           0.           0.           0.           0.       
  780.00000p      0.           0.           0.           0.           0.           0.       
  785.00000p      0.           0.           0.           0.           0.           0.       
  790.00000p      0.           0.           0.           0.           0.           0.       
  795.00000p      0.           0.           0.           0.           0.           0.       
  800.00000p      0.           0.           0.           0.           0.           0.       
  805.00000p      0.           0.           0.           0.           0.           0.       
  810.00000p      0.           0.           0.           0.           0.           0.       
  815.00000p      0.           0.           0.           0.           0.           0.       
  820.00000p      0.           0.           0.           0.           0.           0.       
  825.00000p      0.           0.           0.           0.           0.           0.       
  830.00000p      0.           0.           0.           0.           0.           0.       
  835.00000p      0.           0.           0.           0.           0.           0.       
  840.00000p      0.           0.           0.           0.           0.           0.       
  845.00000p      0.           0.           0.           0.           0.           0.       
  850.00000p      0.           0.           0.           0.           0.           0.       
  855.00000p      0.           0.           0.           0.           0.           0.       
  860.00000p      0.           0.           0.           0.           0.           0.       
  865.00000p      0.           0.           0.           0.           0.           0.       
  870.00000p      0.           0.           0.           0.           0.           0.       
  875.00000p      0.           0.           0.           0.           0.           0.       
  880.00000p      0.           0.           0.           0.           0.           0.       
  885.00000p      0.           0.           0.           0.           0.           0.       
  890.00000p      0.           0.           0.           0.           0.           0.       
  895.00000p      0.           0.           0.           0.           0.           0.       
  900.00000p      0.           0.           0.           0.           0.           0.       
  905.00000p      0.           0.           0.           0.           0.           0.       
  910.00000p      0.           0.           0.           0.           0.           0.       
  915.00000p      0.           0.           0.           0.           0.           0.       
  920.00000p      0.           0.           0.           0.           0.           0.       
  925.00000p      0.           0.           0.           0.           0.           0.       
  930.00000p      0.           0.           0.           0.           0.           0.       
  935.00000p      0.           0.           0.           0.           0.           0.       
  940.00000p      0.           0.           0.           0.           0.           0.       
  945.00000p      0.           0.           0.           0.           0.           0.       
  950.00000p      0.           0.           0.           0.           0.           0.       
  955.00000p      0.           0.           0.           0.           0.           0.       
  960.00000p      0.           0.           0.           0.           0.           0.       
  965.00000p      0.           0.           0.           0.           0.           0.       
  970.00000p      0.           0.           0.           0.           0.           0.       
  975.00000p      0.           0.           0.           0.           0.           0.       
  980.00000p      0.           0.           0.           0.           0.           0.       
  985.00000p      0.           0.           0.           0.           0.           0.       
  990.00000p      0.           0.           0.           0.           0.           0.       
  995.00000p      0.           0.           0.           0.           0.           0.       
    1.00000n      0.           0.           0.           0.           0.           0.       
    1.00500n      0.           0.           0.           0.           0.           0.       
    1.01000n      0.           0.           0.           0.           0.           0.       
    1.01500n      0.           0.           0.           0.           0.           0.       
    1.02000n      0.           0.           0.           0.           0.           0.       
    1.02500n      0.           0.           0.           0.           0.           0.       
    1.03000n      0.           0.           0.           0.           0.           0.       
    1.03500n      0.           0.           0.           0.           0.           0.       
    1.04000n      0.           0.           0.           0.           0.           0.       
    1.04500n      0.           0.           0.           0.           0.           0.       
    1.05000n      0.           0.           0.           0.           0.           0.       
    1.05500n      0.           0.           0.           0.           0.           0.       
    1.06000n      0.           0.           0.           0.           0.           0.       
    1.06500n      0.           0.           0.           0.           0.           0.       
    1.07000n      0.           0.           0.           0.           0.           0.       
    1.07500n      0.           0.           0.           0.           0.           0.       
    1.08000n      0.           0.           0.           0.           0.           0.       
    1.08500n      0.           0.           0.           0.           0.           0.       
    1.09000n      0.           0.           0.           0.           0.           0.       
    1.09500n      0.           0.           0.           0.           0.           0.       
    1.10000n      0.           0.           0.           0.           0.           0.       
    1.10500n      0.           0.           0.           0.           0.           0.       
    1.11000n      0.           0.           0.           0.           0.           0.       
    1.11500n      0.           0.           0.           0.           0.           0.       
    1.12000n      0.           0.           0.           0.           0.           0.       
    1.12500n      0.           0.           0.           0.           0.           0.       
    1.13000n      0.           0.           0.           0.           0.           0.       
    1.13500n      0.           0.           0.           0.           0.           0.       
    1.14000n      0.           0.           0.           0.           0.           0.       
    1.14500n      0.           0.           0.           0.           0.           0.       
    1.15000n      0.           0.           0.           0.           0.           0.       
    1.15500n      0.           0.           0.           0.           0.           0.       
    1.16000n      0.           0.           0.           0.           0.           0.       
    1.16500n      0.           0.           0.           0.           0.           0.       
    1.17000n      0.           0.           0.           0.           0.           0.       
    1.17500n      0.           0.           0.           0.           0.           0.       
    1.18000n      0.           0.           0.           0.           0.           0.       
    1.18500n      0.           0.           0.           0.           0.           0.       
    1.19000n      0.           0.           0.           0.           0.           0.       
    1.19500n      0.           0.           0.           0.           0.           0.       
    1.20000n      0.           0.           0.           0.           0.           0.       
    1.20500n      0.           0.           0.           0.           0.           0.       
    1.21000n      0.           0.           0.           0.           0.           0.       
    1.21500n      0.           0.           0.           0.           0.           0.       
    1.22000n      0.           0.           0.           0.           0.           0.       
    1.22500n      0.           0.           0.           0.           0.           0.       
    1.23000n      0.           0.           0.           0.           0.           0.       
    1.23500n      0.           0.           0.           0.           0.           0.       
    1.24000n      0.           0.           0.           0.           0.           0.       
    1.24500n      0.           0.           0.           0.           0.           0.       
    1.25000n      0.           0.           0.           0.           0.           0.       
    1.25500n      0.           0.           0.           0.           0.           0.       
    1.26000n      0.           0.           0.           0.           0.           0.       
    1.26500n      0.           0.           0.           0.           0.           0.       
    1.27000n      0.           0.           0.           0.           0.           0.       
    1.27500n      0.           0.           0.           0.           0.           0.       
    1.28000n      0.           0.           0.           0.           0.           0.       
    1.28500n      0.           0.           0.           0.           0.           0.       
    1.29000n      0.           0.           0.           0.           0.           0.       
    1.29500n      0.           0.           0.           0.           0.           0.       
    1.30000n      0.           0.           0.           0.           0.           0.       
    1.30500n      0.           0.           0.           0.           0.           0.       
    1.31000n      0.           0.           0.           0.           0.           0.       
    1.31500n      0.           0.           0.           0.           0.           0.       
    1.32000n      0.           0.           0.           0.           0.           0.       
    1.32500n      0.           0.           0.           0.           0.           0.       
    1.33000n      0.           0.           0.           0.           0.           0.       
    1.33500n      0.           0.           0.           0.           0.           0.       
    1.34000n      0.           0.           0.           0.           0.           0.       
    1.34500n      0.           0.           0.           0.           0.           0.       
    1.35000n      0.           0.           0.           0.           0.           0.       
    1.35500n      0.           0.           0.           0.           0.           0.       
    1.36000n      0.           0.           0.           0.           0.           0.       
    1.36500n      0.           0.           0.           0.           0.           0.       
    1.37000n      0.           0.           0.           0.           0.           0.       
    1.37500n      0.           0.           0.           0.           0.           0.       
    1.38000n      0.           0.           0.           0.           0.           0.       
    1.38500n      0.           0.           0.           0.           0.           0.       
    1.39000n      0.           0.           0.           0.           0.           0.       
    1.39500n      0.           0.           0.           0.           0.           0.       
    1.40000n      0.           0.           0.           0.           0.           0.       
    1.40500n      0.           0.           0.           0.           0.           0.       
    1.41000n      0.           0.           0.           0.           0.           0.       
    1.41500n      0.           0.           0.           0.           0.           0.       
    1.42000n      0.           0.           0.           0.           0.           0.       
    1.42500n      0.           0.           0.           0.           0.           0.       
    1.43000n      0.           0.           0.           0.           0.           0.       
    1.43500n      0.           0.           0.           0.           0.           0.       
    1.44000n      0.           0.           0.           0.           0.           0.       
    1.44500n      0.           0.           0.           0.           0.           0.       
    1.45000n      0.           0.           0.           0.           0.           0.       
    1.45500n      0.           0.           0.           0.           0.           0.       
    1.46000n      0.           0.           0.           0.           0.           0.       
    1.46500n      0.           0.           0.           0.           0.           0.       
    1.47000n      0.           0.           0.           0.           0.           0.       
    1.47500n      0.           0.           0.           0.           0.           0.       
    1.48000n      0.           0.           0.           0.           0.           0.       
    1.48500n      0.           0.           0.           0.           0.           0.       
    1.49000n      0.           0.           0.           0.           0.           0.       
    1.49500n      0.           0.           0.           0.           0.           0.       
    1.50000n      0.           0.           0.           0.           0.           0.       
    1.50500n      0.           0.           0.           0.           0.           0.       
    1.51000n      0.           0.           0.           0.           0.           0.       
    1.51500n      0.           0.           0.           0.           0.           0.       
    1.52000n      0.           0.           0.           0.           0.           0.       
    1.52500n      0.           0.           0.           0.           0.           0.       
    1.53000n      0.           0.           0.           0.           0.           0.       
    1.53500n      0.           0.           0.           0.           0.           0.       
    1.54000n      0.           0.           0.           0.           0.           0.       
    1.54500n      0.           0.           0.           0.           0.           0.       
    1.55000n      0.           0.           0.           0.           0.           0.       
    1.55500n      0.           0.           0.           0.           0.           0.       
    1.56000n      0.           0.           0.           0.           0.           0.       
    1.56500n      0.           0.           0.           0.           0.           0.       
    1.57000n      0.           0.           0.           0.           0.           0.       
    1.57500n      0.           0.           0.           0.           0.           0.       
    1.58000n      0.           0.           0.           0.           0.           0.       
    1.58500n      0.           0.           0.           0.           0.           0.       
    1.59000n      0.           0.           0.           0.           0.           0.       
    1.59500n      0.           0.           0.           0.           0.           0.       
    1.60000n      0.           0.           0.           0.           0.           0.       
    1.60500n      0.           0.           0.           0.           0.           0.       
    1.61000n      0.           0.           0.           0.           0.           0.       
    1.61500n      0.           0.           0.           0.           0.           0.       
    1.62000n      0.           0.           0.           0.           0.           0.       
    1.62500n      0.           0.           0.           0.           0.           0.       
    1.63000n      0.           0.           0.           0.           0.           0.       
    1.63500n      0.           0.           0.           0.           0.           0.       
    1.64000n      0.           0.           0.           0.           0.           0.       
    1.64500n      0.           0.           0.           0.           0.           0.       
    1.65000n      0.           0.           0.           0.           0.           0.       
    1.65500n      0.           0.           0.           0.           0.           0.       
    1.66000n      0.           0.           0.           0.           0.           0.       
    1.66500n      0.           0.           0.           0.           0.           0.       
    1.67000n      0.           0.           0.           0.           0.           0.       
    1.67500n      0.           0.           0.           0.           0.           0.       
    1.68000n      0.           0.           0.           0.           0.           0.       
    1.68500n      0.           0.           0.           0.           0.           0.       
    1.69000n      0.           0.           0.           0.           0.           0.       
    1.69500n      0.           0.           0.           0.           0.           0.       
    1.70000n      0.           0.           0.           0.           0.           0.       
    1.70500n      0.           0.           0.           0.           0.           0.       
    1.71000n      0.           0.           0.           0.           0.           0.       
    1.71500n      0.           0.           0.           0.           0.           0.       
    1.72000n      0.           0.           0.           0.           0.           0.       
    1.72500n      0.           0.           0.           0.           0.           0.       
    1.73000n      0.           0.           0.           0.           0.           0.       
    1.73500n      0.           0.           0.           0.           0.           0.       
    1.74000n      0.           0.           0.           0.           0.           0.       
    1.74500n      0.           0.           0.           0.           0.           0.       
    1.75000n      0.           0.           0.           0.           0.           0.       
    1.75500n      0.           0.           0.           0.           0.           0.       
    1.76000n      0.           0.           0.           0.           0.           0.       
    1.76500n      0.           0.           0.           0.           0.           0.       
    1.77000n      0.           0.           0.           0.           0.           0.       
    1.77500n      0.           0.           0.           0.           0.           0.       
    1.78000n      0.           0.           0.           0.           0.           0.       
    1.78500n      0.           0.           0.           0.           0.           0.       
    1.79000n      0.           0.           0.           0.           0.           0.       
    1.79500n      0.           0.           0.           0.           0.           0.       
    1.80000n      0.           0.           0.           0.           0.           0.       
    1.80500n      0.           0.           0.           0.           0.           0.       
    1.81000n      0.           0.           0.           0.           0.           0.       
    1.81500n      0.           0.           0.           0.           0.           0.       
    1.82000n      0.           0.           0.           0.           0.           0.       
    1.82500n      0.           0.           0.           0.           0.           0.       
    1.83000n      0.           0.           0.           0.           0.           0.       
    1.83500n      0.           0.           0.           0.           0.           0.       
    1.84000n      0.           0.           0.           0.           0.           0.       
    1.84500n      0.           0.           0.           0.           0.           0.       
    1.85000n      0.           0.           0.           0.           0.           0.       
    1.85500n      0.           0.           0.           0.           0.           0.       
    1.86000n      0.           0.           0.           0.           0.           0.       
    1.86500n      0.           0.           0.           0.           0.           0.       
    1.87000n      0.           0.           0.           0.           0.           0.       
    1.87500n      0.           0.           0.           0.           0.           0.       
    1.88000n      0.           0.           0.           0.           0.           0.       
    1.88500n      0.           0.           0.           0.           0.           0.       
    1.89000n      0.           0.           0.           0.           0.           0.       
    1.89500n      0.           0.           0.           0.           0.           0.       
    1.90000n      0.           0.           0.           0.           0.           0.       
    1.90500n      0.           0.           0.           0.           0.           0.       
    1.91000n      0.           0.           0.           0.           0.           0.       
    1.91500n      0.           0.           0.           0.           0.           0.       
    1.92000n      0.           0.           0.           0.           0.           0.       
    1.92500n      0.           0.           0.           0.           0.           0.       
    1.93000n      0.           0.           0.           0.           0.           0.       
    1.93500n      0.           0.           0.           0.           0.           0.       
    1.94000n      0.           0.           0.           0.           0.           0.       
    1.94500n      0.           0.           0.           0.           0.           0.       
    1.95000n      0.           0.           0.           0.           0.           0.       
    1.95500n      0.           0.           0.           0.           0.           0.       
    1.96000n      0.           0.           0.           0.           0.           0.       
    1.96500n      0.           0.           0.           0.           0.           0.       
    1.97000n      0.           0.           0.           0.           0.           0.       
    1.97500n      0.           0.           0.           0.           0.           0.       
    1.98000n      0.           0.           0.           0.           0.           0.       
    1.98500n      0.           0.           0.           0.           0.           0.       
    1.99000n      0.           0.           0.           0.           0.           0.       
    1.99500n      0.           0.           0.           0.           0.           0.       
    2.00000n      0.           0.           0.           0.           0.           0.       
    2.00500n      0.           0.           0.           0.           0.           0.       
    2.01000n      0.           0.           0.           0.           0.           0.       
    2.01500n      0.           0.           0.           0.           0.           0.       
    2.02000n      0.           0.           0.           0.           0.           0.       
    2.02500n      0.           0.           0.           0.           0.           0.       
    2.03000n      0.           0.           0.           0.           0.           0.       
    2.03500n      0.           0.           0.           0.           0.           0.       
    2.04000n      0.           0.           0.           0.           0.           0.       
    2.04500n      0.           0.           0.           0.           0.           0.       
    2.05000n      0.           0.           0.           0.           0.           0.       
    2.05500n      0.           0.           0.           0.           0.           0.       
    2.06000n      0.           0.           0.           0.           0.           0.       
    2.06500n      0.           0.           0.           0.           0.           0.       
    2.07000n      0.           0.           0.           0.           0.           0.       
    2.07500n      0.           0.           0.           0.           0.           0.       
    2.08000n      0.           0.           0.           0.           0.           0.       
    2.08500n      0.           0.           0.           0.           0.           0.       
    2.09000n      0.           0.           0.           0.           0.           0.       
    2.09500n      0.           0.           0.           0.           0.           0.       
    2.10000n      0.           0.           0.           0.           0.           0.       
    2.10500n      0.           0.           0.           0.           0.           0.       
    2.11000n      0.           0.           0.           0.           0.           0.       
    2.11500n      0.           0.           0.           0.           0.           0.       
    2.12000n      0.           0.           0.           0.           0.           0.       
    2.12500n      0.           0.           0.           0.           0.           0.       
    2.13000n      0.           0.           0.           0.           0.           0.       
    2.13500n      0.           0.           0.           0.           0.           0.       
    2.14000n      0.           0.           0.           0.           0.           0.       
    2.14500n      0.           0.           0.           0.           0.           0.       
    2.15000n      0.           0.           0.           0.           0.           0.       
    2.15500n      0.           0.           0.           0.           0.           0.       
    2.16000n      0.           0.           0.           0.           0.           0.       
    2.16500n      0.           0.           0.           0.           0.           0.       
    2.17000n      0.           0.           0.           0.           0.           0.       
    2.17500n      0.           0.           0.           0.           0.           0.       
    2.18000n      0.           0.           0.           0.           0.           0.       
    2.18500n      0.           0.           0.           0.           0.           0.       
    2.19000n      0.           0.           0.           0.           0.           0.       
    2.19500n      0.           0.           0.           0.           0.           0.       
    2.20000n      0.           0.           0.           0.           0.           0.       
    2.20500n      0.           0.           0.           0.           0.           0.       
    2.21000n      0.           0.           0.           0.           0.           0.       
    2.21500n      0.           0.           0.           0.           0.           0.       
    2.22000n      0.           0.           0.           0.           0.           0.       
    2.22500n      0.           0.           0.           0.           0.           0.       
    2.23000n      0.           0.           0.           0.           0.           0.       
    2.23500n      0.           0.           0.           0.           0.           0.       
    2.24000n      0.           0.           0.           0.           0.           0.       
    2.24500n      0.           0.           0.           0.           0.           0.       
    2.25000n      0.           0.           0.           0.           0.           0.       
    2.25500n      0.           0.           0.           0.           0.           0.       
    2.26000n      0.           0.           0.           0.           0.           0.       
    2.26500n      0.           0.           0.           0.           0.           0.       
    2.27000n      0.           0.           0.           0.           0.           0.       
    2.27500n      0.           0.           0.           0.           0.           0.       
    2.28000n      0.           0.           0.           0.           0.           0.       
    2.28500n      0.           0.           0.           0.           0.           0.       
    2.29000n      0.           0.           0.           0.           0.           0.       
    2.29500n      0.           0.           0.           0.           0.           0.       
    2.30000n      0.           0.           0.           0.           0.           0.       
    2.30500n      0.           0.           0.           0.           0.           0.       
    2.31000n      0.           0.           0.           0.           0.           0.       
    2.31500n      0.           0.           0.           0.           0.           0.       
    2.32000n      0.           0.           0.           0.           0.           0.       
    2.32500n      0.           0.           0.           0.           0.           0.       
    2.33000n      0.           0.           0.           0.           0.           0.       
    2.33500n      0.           0.           0.           0.           0.           0.       
    2.34000n      0.           0.           0.           0.           0.           0.       
    2.34500n      0.           0.           0.           0.           0.           0.       
    2.35000n      0.           0.           0.           0.           0.           0.       
    2.35500n      0.           0.           0.           0.           0.           0.       
    2.36000n      0.           0.           0.           0.           0.           0.       
    2.36500n      0.           0.           0.           0.           0.           0.       
    2.37000n      0.           0.           0.           0.           0.           0.       
    2.37500n      0.           0.           0.           0.           0.           0.       
    2.38000n      0.           0.           0.           0.           0.           0.       
    2.38500n      0.           0.           0.           0.           0.           0.       
    2.39000n      0.           0.           0.           0.           0.           0.       
    2.39500n      0.           0.           0.           0.           0.           0.       
    2.40000n      0.           0.           0.           0.           0.           0.       
    2.40500n      0.           0.           0.           0.           0.           0.       
    2.41000n      0.           0.           0.           0.           0.           0.       
    2.41500n      0.           0.           0.           0.           0.           0.       
    2.42000n      0.           0.           0.           0.           0.           0.       
    2.42500n      0.           0.           0.           0.           0.           0.       
    2.43000n      0.           0.           0.           0.           0.           0.       
    2.43500n      0.           0.           0.           0.           0.           0.       
    2.44000n      0.           0.           0.           0.           0.           0.       
    2.44500n      0.           0.           0.           0.           0.           0.       
    2.45000n      0.           0.           0.           0.           0.           0.       
    2.45500n      0.           0.           0.           0.           0.           0.       
    2.46000n      0.           0.           0.           0.           0.           0.       
    2.46500n      0.           0.           0.           0.           0.           0.       
    2.47000n      0.           0.           0.           0.           0.           0.       
    2.47500n      0.           0.           0.           0.           0.           0.       
    2.48000n      0.           0.           0.           0.           0.           0.       
    2.48500n      0.           0.           0.           0.           0.           0.       
    2.49000n      0.           0.           0.           0.           0.           0.       
    2.49500n      0.           0.           0.           0.           0.           0.       
    2.50000n      0.           0.           0.           0.           0.           0.       
    2.50500n      0.           0.           0.           0.           0.           0.       
    2.51000n      0.           0.           0.           0.           0.           0.       
    2.51500n      0.           0.           0.           0.           0.           0.       
    2.52000n      0.           0.           0.           0.           0.           0.       
    2.52500n      0.           0.           0.           0.           0.           0.       
    2.53000n      0.           0.           0.           0.           0.           0.       
    2.53500n      0.           0.           0.           0.           0.           0.       
    2.54000n      0.           0.           0.           0.           0.           0.       
    2.54500n      0.           0.           0.           0.           0.           0.       
    2.55000n      0.           0.           0.           0.           0.           0.       
    2.55500n      0.           0.           0.           0.           0.           0.       
    2.56000n      0.           0.           0.           0.           0.           0.       
    2.56500n      0.           0.           0.           0.           0.           0.       
    2.57000n      0.           0.           0.           0.           0.           0.       
    2.57500n      0.           0.           0.           0.           0.           0.       
    2.58000n      0.           0.           0.           0.           0.           0.       
    2.58500n      0.           0.           0.           0.           0.           0.       
    2.59000n      0.           0.           0.           0.           0.           0.       
    2.59500n      0.           0.           0.           0.           0.           0.       
    2.60000n      0.           0.           0.           0.           0.           0.       
    2.60500n      0.           0.           0.           0.           0.           0.       
    2.61000n      0.           0.           0.           0.           0.           0.       
    2.61500n      0.           0.           0.           0.           0.           0.       
    2.62000n      0.           0.           0.           0.           0.           0.       
    2.62500n      0.           0.           0.           0.           0.           0.       
    2.63000n      0.           0.           0.           0.           0.           0.       
    2.63500n      0.           0.           0.           0.           0.           0.       
    2.64000n      0.           0.           0.           0.           0.           0.       
    2.64500n      0.           0.           0.           0.           0.           0.       
    2.65000n      0.           0.           0.           0.           0.           0.       
    2.65500n      0.           0.           0.           0.           0.           0.       
    2.66000n      0.           0.           0.           0.           0.           0.       
    2.66500n      0.           0.           0.           0.           0.           0.       
    2.67000n      0.           0.           0.           0.           0.           0.       
    2.67500n      0.           0.           0.           0.           0.           0.       
    2.68000n      0.           0.           0.           0.           0.           0.       
    2.68500n      0.           0.           0.           0.           0.           0.       
    2.69000n      0.           0.           0.           0.           0.           0.       
    2.69500n      0.           0.           0.           0.           0.           0.       
    2.70000n      0.           0.           0.           0.           0.           0.       
    2.70500n      0.           0.           0.           0.           0.           0.       
    2.71000n      0.           0.           0.           0.           0.           0.       
    2.71500n      0.           0.           0.           0.           0.           0.       
    2.72000n      0.           0.           0.           0.           0.           0.       
    2.72500n      0.           0.           0.           0.           0.           0.       
    2.73000n      0.           0.           0.           0.           0.           0.       
    2.73500n      0.           0.           0.           0.           0.           0.       
    2.74000n      0.           0.           0.           0.           0.           0.       
    2.74500n      0.           0.           0.           0.           0.           0.       
    2.75000n      0.           0.           0.           0.           0.           0.       
    2.75500n      0.           0.           0.           0.           0.           0.       
    2.76000n      0.           0.           0.           0.           0.           0.       
    2.76500n      0.           0.           0.           0.           0.           0.       
    2.77000n      0.           0.           0.           0.           0.           0.       
    2.77500n      0.           0.           0.           0.           0.           0.       
    2.78000n      0.           0.           0.           0.           0.           0.       
    2.78500n      0.           0.           0.           0.           0.           0.       
    2.79000n      0.           0.           0.           0.           0.           0.       
    2.79500n      0.           0.           0.           0.           0.           0.       
    2.80000n      0.           0.           0.           0.           0.           0.       
    2.80500n      0.           0.           0.           0.           0.           0.       
    2.81000n      0.           0.           0.           0.           0.           0.       
    2.81500n      0.           0.           0.           0.           0.           0.       
    2.82000n      0.           0.           0.           0.           0.           0.       
    2.82500n      0.           0.           0.           0.           0.           0.       
    2.83000n      0.           0.           0.           0.           0.           0.       
    2.83500n      0.           0.           0.           0.           0.           0.       
    2.84000n      0.           0.           0.           0.           0.           0.       
    2.84500n      0.           0.           0.           0.           0.           0.       
    2.85000n      0.           0.           0.           0.           0.           0.       
    2.85500n      0.           0.           0.           0.           0.           0.       
    2.86000n      0.           0.           0.           0.           0.           0.       
    2.86500n      0.           0.           0.           0.           0.           0.       
    2.87000n      0.           0.           0.           0.           0.           0.       
    2.87500n      0.           0.           0.           0.           0.           0.       
    2.88000n      0.           0.           0.           0.           0.           0.       
    2.88500n      0.           0.           0.           0.           0.           0.       
    2.89000n      0.           0.           0.           0.           0.           0.       
    2.89500n      0.           0.           0.           0.           0.           0.       
    2.90000n      0.           0.           0.           0.           0.           0.       
    2.90500n      0.           0.           0.           0.           0.           0.       
    2.91000n      0.           0.           0.           0.           0.           0.       
    2.91500n      0.           0.           0.           0.           0.           0.       
    2.92000n      0.           0.           0.           0.           0.           0.       
    2.92500n      0.           0.           0.           0.           0.           0.       
    2.93000n      0.           0.           0.           0.           0.           0.       
    2.93500n      0.           0.           0.           0.           0.           0.       
    2.94000n      0.           0.           0.           0.           0.           0.       
    2.94500n      0.           0.           0.           0.           0.           0.       
    2.95000n      0.           0.           0.           0.           0.           0.       
    2.95500n      0.           0.           0.           0.           0.           0.       
    2.96000n      0.           0.           0.           0.           0.           0.       
    2.96500n      0.           0.           0.           0.           0.           0.       
    2.97000n      0.           0.           0.           0.           0.           0.       
    2.97500n      0.           0.           0.           0.           0.           0.       
    2.98000n      0.           0.           0.           0.           0.           0.       
    2.98500n      0.           0.           0.           0.           0.           0.       
    2.99000n      0.           0.           0.           0.           0.           0.       
    2.99500n      0.           0.           0.           0.           0.           0.       
    3.00000n      0.           0.           0.           0.           0.           0.       
    3.00500n      0.           0.           0.           0.           0.           0.       
    3.01000n      0.           0.           0.           0.           0.           0.       
    3.01500n      0.           0.           0.           0.           0.           0.       
    3.02000n      0.           0.           0.           0.           0.           0.       
    3.02500n      0.           0.           0.           0.           0.           0.       
    3.03000n      0.           0.           0.           0.           0.           0.       
    3.03500n      0.           0.           0.           0.           0.           0.       
    3.04000n      0.           0.           0.           0.           0.           0.       
    3.04500n      0.           0.           0.           0.           0.           0.       
    3.05000n      0.           0.           0.           0.           0.           0.       
    3.05500n      0.           0.           0.           0.           0.           0.       
    3.06000n      0.           0.           0.           0.           0.           0.       
    3.06500n      0.           0.           0.           0.           0.           0.       
    3.07000n      0.           0.           0.           0.           0.           0.       
    3.07500n      0.           0.           0.           0.           0.           0.       
    3.08000n      0.           0.           0.           0.           0.           0.       
    3.08500n      0.           0.           0.           0.           0.           0.       
    3.09000n      0.           0.           0.           0.           0.           0.       
    3.09500n      0.           0.           0.           0.           0.           0.       
    3.10000n      0.           0.           0.           0.           0.           0.       
    3.10500n      0.           0.           0.           0.           0.           0.       
    3.11000n      0.           0.           0.           0.           0.           0.       
    3.11500n      0.           0.           0.           0.           0.           0.       
    3.12000n      0.           0.           0.           0.           0.           0.       
    3.12500n      0.           0.           0.           0.           0.           0.       
    3.13000n      0.           0.           0.           0.           0.           0.       
    3.13500n      0.           0.           0.           0.           0.           0.       
    3.14000n      0.           0.           0.           0.           0.           0.       
    3.14500n      0.           0.           0.           0.           0.           0.       
    3.15000n      0.           0.           0.           0.           0.           0.       
    3.15500n      0.           0.           0.           0.           0.           0.       
    3.16000n      0.           0.           0.           0.           0.           0.       
    3.16500n      0.           0.           0.           0.           0.           0.       
    3.17000n      0.           0.           0.           0.           0.           0.       
    3.17500n      0.           0.           0.           0.           0.           0.       
    3.18000n      0.           0.           0.           0.           0.           0.       
    3.18500n      0.           0.           0.           0.           0.           0.       
    3.19000n      0.           0.           0.           0.           0.           0.       
    3.19500n      0.           0.           0.           0.           0.           0.       
    3.20000n      0.           0.           0.           0.           0.           0.       
    3.20500n      0.           0.           0.           0.           0.           0.       
    3.21000n      0.           0.           0.           0.           0.           0.       
    3.21500n      0.           0.           0.           0.           0.           0.       
    3.22000n      0.           0.           0.           0.           0.           0.       
    3.22500n      0.           0.           0.           0.           0.           0.       
    3.23000n      0.           0.           0.           0.           0.           0.       
    3.23500n      0.           0.           0.           0.           0.           0.       
    3.24000n      0.           0.           0.           0.           0.           0.       
    3.24500n      0.           0.           0.           0.           0.           0.       
    3.25000n      0.           0.           0.           0.           0.           0.       
    3.25500n      0.           0.           0.           0.           0.           0.       
    3.26000n      0.           0.           0.           0.           0.           0.       
    3.26500n      0.           0.           0.           0.           0.           0.       
    3.27000n      0.           0.           0.           0.           0.           0.       
    3.27500n      0.           0.           0.           0.           0.           0.       
    3.28000n      0.           0.           0.           0.           0.           0.       
    3.28500n      0.           0.           0.           0.           0.           0.       
    3.29000n      0.           0.           0.           0.           0.           0.       
    3.29500n      0.           0.           0.           0.           0.           0.       
    3.30000n      0.           0.           0.           0.           0.           0.       
    3.30500n      0.           0.           0.           0.           0.           0.       
    3.31000n      0.           0.           0.           0.           0.           0.       
    3.31500n      0.           0.           0.           0.           0.           0.       
    3.32000n      0.           0.           0.           0.           0.           0.       
    3.32500n      0.           0.           0.           0.           0.           0.       
    3.33000n      0.           0.           0.           0.           0.           0.       
    3.33500n      0.           0.           0.           0.           0.           0.       
    3.34000n      0.           0.           0.           0.           0.           0.       
    3.34500n      0.           0.           0.           0.           0.           0.       
    3.35000n      0.           0.           0.           0.           0.           0.       
    3.35500n      0.           0.           0.           0.           0.           0.       
    3.36000n      0.           0.           0.           0.           0.           0.       
    3.36500n      0.           0.           0.           0.           0.           0.       
    3.37000n      0.           0.           0.           0.           0.           0.       
    3.37500n      0.           0.           0.           0.           0.           0.       
    3.38000n      0.           0.           0.           0.           0.           0.       
    3.38500n      0.           0.           0.           0.           0.           0.       
    3.39000n      0.           0.           0.           0.           0.           0.       
    3.39500n      0.           0.           0.           0.           0.           0.       
    3.40000n      0.           0.           0.           0.           0.           0.       
    3.40500n      0.           0.           0.           0.           0.           0.       
    3.41000n      0.           0.           0.           0.           0.           0.       
    3.41500n      0.           0.           0.           0.           0.           0.       
    3.42000n      0.           0.           0.           0.           0.           0.       
    3.42500n      0.           0.           0.           0.           0.           0.       
    3.43000n      0.           0.           0.           0.           0.           0.       
    3.43500n      0.           0.           0.           0.           0.           0.       
    3.44000n      0.           0.           0.           0.           0.           0.       
    3.44500n      0.           0.           0.           0.           0.           0.       
    3.45000n      0.           0.           0.           0.           0.           0.       
    3.45500n      0.           0.           0.           0.           0.           0.       
    3.46000n      0.           0.           0.           0.           0.           0.       
    3.46500n      0.           0.           0.           0.           0.           0.       
    3.47000n      0.           0.           0.           0.           0.           0.       
    3.47500n      0.           0.           0.           0.           0.           0.       
    3.48000n      0.           0.           0.           0.           0.           0.       
    3.48500n      0.           0.           0.           0.           0.           0.       
    3.49000n      0.           0.           0.           0.           0.           0.       
    3.49500n      0.           0.           0.           0.           0.           0.       
    3.50000n      0.           0.           0.           0.           0.           0.       
    3.50500n      0.           0.           0.           0.           0.           0.       
    3.51000n      0.           0.           0.           0.           0.           0.       
    3.51500n      0.           0.           0.           0.           0.           0.       
    3.52000n      0.           0.           0.           0.           0.           0.       
    3.52500n      0.           0.           0.           0.           0.           0.       
    3.53000n      0.           0.           0.           0.           0.           0.       
    3.53500n      0.           0.           0.           0.           0.           0.       
    3.54000n      0.           0.           0.           0.           0.           0.       
    3.54500n      0.           0.           0.           0.           0.           0.       
    3.55000n      0.           0.           0.           0.           0.           0.       
    3.55500n      0.           0.           0.           0.           0.           0.       
    3.56000n      0.           0.           0.           0.           0.           0.       
    3.56500n      0.           0.           0.           0.           0.           0.       
    3.57000n      0.           0.           0.           0.           0.           0.       
    3.57500n      0.           0.           0.           0.           0.           0.       
    3.58000n      0.           0.           0.           0.           0.           0.       
    3.58500n      0.           0.           0.           0.           0.           0.       
    3.59000n      0.           0.           0.           0.           0.           0.       
    3.59500n      0.           0.           0.           0.           0.           0.       
    3.60000n      0.           0.           0.           0.           0.           0.       
    3.60500n      0.           0.           0.           0.           0.           0.       
    3.61000n      0.           0.           0.           0.           0.           0.       
    3.61500n      0.           0.           0.           0.           0.           0.       
    3.62000n      0.           0.           0.           0.           0.           0.       
    3.62500n      0.           0.           0.           0.           0.           0.       
    3.63000n      0.           0.           0.           0.           0.           0.       
    3.63500n      0.           0.           0.           0.           0.           0.       
    3.64000n      0.           0.           0.           0.           0.           0.       
    3.64500n      0.           0.           0.           0.           0.           0.       
    3.65000n      0.           0.           0.           0.           0.           0.       
    3.65500n      0.           0.           0.           0.           0.           0.       
    3.66000n      0.           0.           0.           0.           0.           0.       
    3.66500n      0.           0.           0.           0.           0.           0.       
    3.67000n      0.           0.           0.           0.           0.           0.       
    3.67500n      0.           0.           0.           0.           0.           0.       
    3.68000n      0.           0.           0.           0.           0.           0.       
    3.68500n      0.           0.           0.           0.           0.           0.       
    3.69000n      0.           0.           0.           0.           0.           0.       
    3.69500n      0.           0.           0.           0.           0.           0.       
    3.70000n      0.           0.           0.           0.           0.           0.       
    3.70500n      0.           0.           0.           0.           0.           0.       
    3.71000n      0.           0.           0.           0.           0.           0.       
    3.71500n      0.           0.           0.           0.           0.           0.       
    3.72000n      0.           0.           0.           0.           0.           0.       
    3.72500n      0.           0.           0.           0.           0.           0.       
    3.73000n      0.           0.           0.           0.           0.           0.       
    3.73500n      0.           0.           0.           0.           0.           0.       
    3.74000n      0.           0.           0.           0.           0.           0.       
    3.74500n      0.           0.           0.           0.           0.           0.       
    3.75000n      0.           0.           0.           0.           0.           0.       
    3.75500n      0.           0.           0.           0.           0.           0.       
    3.76000n      0.           0.           0.           0.           0.           0.       
    3.76500n      0.           0.           0.           0.           0.           0.       
    3.77000n      0.           0.           0.           0.           0.           0.       
    3.77500n      0.           0.           0.           0.           0.           0.       
    3.78000n      0.           0.           0.           0.           0.           0.       
    3.78500n      0.           0.           0.           0.           0.           0.       
    3.79000n      0.           0.           0.           0.           0.           0.       
    3.79500n      0.           0.           0.           0.           0.           0.       
    3.80000n      0.           0.           0.           0.           0.           0.       
    3.80500n      0.           0.           0.           0.           0.           0.       
    3.81000n      0.           0.           0.           0.           0.           0.       
    3.81500n      0.           0.           0.           0.           0.           0.       
    3.82000n      0.           0.           0.           0.           0.           0.       
    3.82500n      0.           0.           0.           0.           0.           0.       
    3.83000n      0.           0.           0.           0.           0.           0.       
    3.83500n      0.           0.           0.           0.           0.           0.       
    3.84000n      0.           0.           0.           0.           0.           0.       
    3.84500n      0.           0.           0.           0.           0.           0.       
    3.85000n      0.           0.           0.           0.           0.           0.       
    3.85500n      0.           0.           0.           0.           0.           0.       
    3.86000n      0.           0.           0.           0.           0.           0.       
    3.86500n      0.           0.           0.           0.           0.           0.       
    3.87000n      0.           0.           0.           0.           0.           0.       
    3.87500n      0.           0.           0.           0.           0.           0.       
    3.88000n      0.           0.           0.           0.           0.           0.       
    3.88500n      0.           0.           0.           0.           0.           0.       
    3.89000n      0.           0.           0.           0.           0.           0.       
    3.89500n      0.           0.           0.           0.           0.           0.       
    3.90000n      0.           0.           0.           0.           0.           0.       
    3.90500n      0.           0.           0.           0.           0.           0.       
    3.91000n      0.           0.           0.           0.           0.           0.       
    3.91500n      0.           0.           0.           0.           0.           0.       
    3.92000n      0.           0.           0.           0.           0.           0.       
    3.92500n      0.           0.           0.           0.           0.           0.       
    3.93000n      0.           0.           0.           0.           0.           0.       
    3.93500n      0.           0.           0.           0.           0.           0.       
    3.94000n      0.           0.           0.           0.           0.           0.       
    3.94500n      0.           0.           0.           0.           0.           0.       
    3.95000n      0.           0.           0.           0.           0.           0.       
    3.95500n      0.           0.           0.           0.           0.           0.       
    3.96000n      0.           0.           0.           0.           0.           0.       
    3.96500n      0.           0.           0.           0.           0.           0.       
    3.97000n      0.           0.           0.           0.           0.           0.       
    3.97500n      0.           0.           0.           0.           0.           0.       
    3.98000n      0.           0.           0.           0.           0.           0.       
    3.98500n      0.           0.           0.           0.           0.           0.       
    3.99000n      0.           0.           0.           0.           0.           0.       
    3.99500n      0.           0.           0.           0.           0.           0.       
    4.00000n      0.           0.           0.           0.           0.           0.       
    4.00500n      0.           0.           0.           0.           0.           0.       
    4.01000n      0.           0.           0.           0.           0.           0.       
    4.01500n      0.           0.           0.           0.           0.           0.       
    4.02000n      0.           0.           0.           0.           0.           0.       
    4.02500n      0.           0.           0.           0.           0.           0.       
    4.03000n      0.           0.           0.           0.           0.           0.       
    4.03500n      0.           0.           0.           0.           0.           0.       
    4.04000n      0.           0.           0.           0.           0.           0.       
    4.04500n      0.           0.           0.           0.           0.           0.       
    4.05000n      0.           0.           0.           0.           0.           0.       
    4.05500n      0.           0.           0.           0.           0.           0.       
    4.06000n      0.           0.           0.           0.           0.           0.       
    4.06500n      0.           0.           0.           0.           0.           0.       
    4.07000n      0.           0.           0.           0.           0.           0.       
    4.07500n      0.           0.           0.           0.           0.           0.       
    4.08000n      0.           0.           0.           0.           0.           0.       
    4.08500n      0.           0.           0.           0.           0.           0.       
    4.09000n      0.           0.           0.           0.           0.           0.       
    4.09500n      0.           0.           0.           0.           0.           0.       
    4.10000n      0.           0.           0.           0.           0.           0.       
    4.10500n      0.           0.           0.           0.           0.           0.       
    4.11000n      0.           0.           0.           0.           0.           0.       
    4.11500n      0.           0.           0.           0.           0.           0.       
    4.12000n      0.           0.           0.           0.           0.           0.       
    4.12500n      0.           0.           0.           0.           0.           0.       
    4.13000n      0.           0.           0.           0.           0.           0.       
    4.13500n      0.           0.           0.           0.           0.           0.       
    4.14000n      0.           0.           0.           0.           0.           0.       
    4.14500n      0.           0.           0.           0.           0.           0.       
    4.15000n      0.           0.           0.           0.           0.           0.       
[...]
  199.04500n      1.1944u     -3.5528u     12.4550u      0.           0.           0.       
  199.05000n      1.1818u     -3.5396u     12.3970u      0.           0.           0.       
  199.05500n      1.1691u     -3.5265u     12.3391u      0.           0.           0.       
  199.06000n      1.1564u     -3.5134u     12.2811u      0.           0.           0.       
  199.06500n      1.1437u     -3.5002u     12.2232u      0.           0.           0.       
  199.07000n      1.1311u     -3.4871u     12.1652u      0.           0.           0.       
  199.07500n      1.1184u     -3.4740u     12.1073u      0.           0.           0.       
  199.08000n      1.0931u     -3.4482u     12.0403u      0.           0.           0.       
  199.08500n      1.0630u     -3.4177u     11.9698u      0.           0.           0.       
  199.09000n      1.0329u     -3.3871u     11.8993u      0.           0.           0.       
  199.09500n      1.0027u     -3.3565u     11.8288u      0.           0.           0.       
  199.10000n    972.6223n     -3.3260u     11.7583u      0.           0.           0.       
  199.10500n    942.4974n     -3.2954u     11.6878u      0.           0.           0.       
  199.11000n    912.3726n     -3.2648u     11.6173u      0.           0.           0.       
  199.11500n    882.2477n     -3.2342u     11.5468u      0.           0.           0.       
  199.12000n    852.1229n     -3.2037u     11.4763u      0.           0.           0.       
  199.12500n    821.9981n     -3.1731u     11.4059u      0.           0.           0.       
  199.13000n    779.7908n     -3.1305u     11.3263u      0.           0.           0.       
  199.13500n    732.9218n     -3.0832u     11.2432u      0.           0.           0.       
  199.14000n    686.0528n     -3.0359u     11.1601u      0.           0.           0.       
  199.14500n    639.1837n     -2.9886u     11.0771u      0.           0.           0.       
  199.15000n    592.3147n     -2.9413u     10.9940u      0.           0.           0.       
  199.15500n    545.4457n     -2.8940u     10.9109u      0.           0.           0.       
  199.16000n      0.          -2.8467u     10.8278u      0.           0.           0.       
  199.16500n      0.          -2.7994u     10.7448u      0.           0.           0.       
  199.17000n      0.          -2.7521u     10.6617u      0.           0.           0.       
  199.17500n      0.          -2.7048u     10.5786u      0.           0.           0.       
  199.18000n      0.          -2.6462u     10.4866u      0.           0.           0.       
  199.18500n      0.          -2.5833u     10.3912u      0.           0.           0.       
  199.19000n      0.          -2.5203u     10.2958u      0.           0.           0.       
  199.19500n      0.          -2.4574u     10.2004u      0.           0.           0.       
  199.20000n      0.          -2.3945u     10.1050u      0.           0.           0.       
  199.20500n      0.          -2.3315u     10.0096u      0.           0.           0.       
  199.21000n      0.          -2.2686u      9.9142u      0.           0.           0.       
  199.21500n      0.          -2.2057u      9.8188u      0.           0.           0.       
  199.22000n      0.          -2.1427u      9.7233u      0.           0.           0.       
  199.22500n      0.          -2.0798u      9.6279u      0.           0.           0.       
  199.23000n      0.          -2.0066u      9.5257u      0.           0.           0.       
  199.23500n      0.          -1.9294u      9.4208u      0.           0.           0.       
  199.24000n      0.          -1.8522u      9.3159u      0.           0.           0.       
  199.24500n   -566.4118n     -1.7751u      9.2110u      0.           0.           0.       
  199.25000n   -643.2274n     -1.6979u      9.1061u      0.           0.           0.       
  199.25500n   -720.0430n     -1.6207u      9.0012u      0.           0.           0.       
  199.26000n   -796.8586n     -1.5436u      8.8963u      0.           0.           0.       
  199.26500n   -873.6743n     -1.4664u      8.7914u      0.           0.           0.       
  199.27000n   -950.4899n     -1.3893u      8.6865u      0.           0.           0.       
  199.27500n     -1.0273u     -1.3121u      8.5816u      0.           0.           0.       
  199.28000n     -1.1132u     -1.2259u      8.4717u      0.           0.           0.       
  199.28500n     -1.2026u     -1.1362u      8.3598u      0.           0.           0.       
  199.29000n     -1.2919u     -1.0466u      8.2479u      0.           0.           0.       
  199.29500n     -1.3813u   -956.8818n      8.1361u      0.           0.           0.       
  199.30000n     -1.4707u   -867.2097n      8.0242u      0.           0.           0.       
  199.30500n     -1.5600u   -777.5376n      7.9124u      0.           0.           0.       
  199.31000n     -1.6494u   -687.8656n      7.8005u      0.           0.           0.       
  199.31500n     -1.7388u   -598.1935n      7.6886u      0.           0.           0.       
  199.32000n     -1.8282u   -508.5214n      7.5768u      0.           0.           0.       
  199.32500n     -1.9175u      0.           7.4649u      0.           0.           0.       
  199.33000n     -2.0145u      0.           7.3498u      0.           0.           0.       
  199.33500n     -2.1145u      0.           7.2335u      0.           0.           0.       
  199.34000n     -2.2145u      0.           7.1171u      0.           0.           0.       
  199.34500n     -2.3144u      0.           7.0007u      0.           0.           0.       
  199.35000n     -2.4144u      0.           6.8844u      0.           0.           0.       
  199.35500n     -2.5143u      0.           6.7680u      0.           0.           0.       
  199.36000n     -2.6143u      0.           6.6517u      0.           0.           0.       
  199.36500n     -2.7143u      0.           6.5353u      0.           0.           0.       
  199.37000n     -2.8142u      0.           6.4189u      0.           0.           0.       
  199.37500n     -2.9142u    580.1169n      6.3026u      0.           0.           0.       
  199.38000n     -3.0202u    686.2981n      6.1848u      0.           0.           0.       
  199.38500n     -3.1285u    794.7911n      6.0665u      0.           0.           0.       
  199.39000n     -3.2368u    903.2842n      5.9482u      0.           0.           0.       
  199.39500n     -3.3451u      1.0118u      5.8299u      0.           0.           0.       
  199.40000n     -3.4534u      1.1203u      5.7116u      0.           0.           0.       
  199.40500n     -3.5617u      1.2288u      5.5932u      0.           0.           0.       
  199.41000n     -3.6700u      1.3373u      5.4749u      0.           0.           0.       
  199.41500n     -3.7783u      1.4457u      5.3566u      0.           0.           0.       
  199.42000n     -3.8867u      1.5542u      5.2383u      0.           0.           0.       
  199.42500n     -3.9950u      1.6627u      5.1200u      0.           0.           0.       
  199.43000n     -4.1076u      1.7755u      5.0021u      0.           0.           0.       
  199.43500n     -4.2218u      1.8899u      4.8845u      0.           0.           0.       
  199.44000n     -4.3361u      2.0043u      4.7668u      0.           0.           0.       
  199.44500n     -4.4504u      2.1187u      4.6491u      0.           0.           0.       
  199.45000n     -4.5647u      2.2331u      4.5314u      0.           0.           0.       
  199.45500n     -4.6789u      2.3475u      4.4137u      0.           0.           0.       
  199.46000n     -4.7932u      2.4619u      4.2960u      0.           0.           0.       
  199.46500n     -4.9075u      2.5764u      4.1784u      0.           0.           0.       
  199.47000n     -5.0218u      2.6908u      4.0607u      0.           0.           0.       
  199.47500n     -5.1360u      2.8052u      3.9430u      0.           0.           0.       
  199.48000n     -5.2528u      2.9220u      3.8276u      0.           0.           0.       
  199.48500n     -5.3706u      3.0398u      3.7131u      0.           0.           0.       
  199.49000n     -5.4883u      3.1577u      3.5986u      0.           0.           0.       
  199.49500n     -5.6061u      3.2755u      3.4841u      0.           0.           0.       
  199.50000n     -5.7238u      3.3933u      3.3696u      0.           0.           0.       
  199.50500n     -5.8416u      3.5111u      3.2551u      0.           0.           0.       
  199.51000n     -5.9593u      3.6289u      3.1406u      0.           0.           0.       
  199.51500n     -6.0771u      3.7467u      3.0262u      0.           0.           0.       
  199.52000n     -6.1948u      3.8645u      2.9117u      0.           0.           0.       
  199.52500n     -6.3126u      3.9823u      2.7972u      0.           0.           0.       
  199.53000n     -6.4310u      4.1007u      2.6868u      0.           0.           0.       
  199.53500n     -6.5496u      4.2194u      2.5779u      0.           0.           0.       
  199.54000n     -6.6683u      4.3380u      2.4691u      0.           0.           0.       
  199.54500n     -6.7869u      4.4566u      2.3603u      0.           0.           0.       
  199.55000n     -6.9056u      4.5753u      2.2515u      0.           0.           0.       
  199.55500n     -7.0242u      4.6939u      2.1426u      0.           0.           0.       
  199.56000n     -7.1429u      4.8126u      2.0338u      0.           0.           0.       
  199.56500n     -7.2615u      4.9312u      1.9250u      0.           0.           0.       
  199.57000n     -7.3802u      5.0498u      1.8162u      0.           0.           0.       
  199.57500n     -7.4989u      5.1685u      1.7073u      0.           0.           0.       
  199.58000n     -7.6163u      5.2858u      1.6043u      0.           0.           0.       
  199.58500n     -7.7332u      5.4027u      1.5035u      0.           0.           0.       
  199.59000n     -7.8502u      5.5196u      1.4027u      0.           0.           0.       
  199.59500n     -7.9671u      5.6364u      1.3019u      0.           0.           0.       
  199.60000n     -8.0841u      5.7533u      1.2011u      0.           0.           0.       
  199.60500n     -8.2011u      5.8702u      1.1003u      0.           0.           0.       
  199.61000n     -8.3180u      5.9870u    999.4770n      0.           0.           0.       
  199.61500n     -8.4350u      6.1039u    898.6734n      0.           0.           0.       
  199.62000n     -8.5519u      6.2208u    797.8697n      0.           0.           0.       
  199.62500n     -8.6689u      6.3376u    697.0661n      0.           0.           0.       
  199.63000n     -8.7828u      6.4514u    603.6165n      0.           0.           0.       
  199.63500n     -8.8955u      6.5640u    513.0043n      0.           0.           0.       
  199.64000n     -9.0082u      6.6765u      0.           0.           0.           0.       
  199.64500n     -9.1209u      6.7891u      0.           0.           0.           0.       
  199.65000n     -9.2336u      6.9016u      0.           0.           0.           0.       
  199.65500n     -9.3463u      7.0142u      0.           0.           0.           0.       
  199.66000n     -9.4590u      7.1268u      0.           0.           0.           0.       
  199.66500n     -9.5717u      7.2393u      0.           0.           0.           0.       
  199.67000n     -9.6845u      7.3519u      0.           0.           0.           0.       
  199.67500n     -9.7972u      7.4644u      0.           0.           0.           0.       
  199.68000n     -9.9050u      7.5721u      0.           0.           0.           0.       
  199.68500n    -10.0111u      7.6779u      0.           0.           0.           0.       
  199.69000n    -10.1171u      7.7837u      0.           0.           0.           0.       
  199.69500n    -10.2231u      7.8895u   -529.1841n      0.           0.           0.       
  199.70000n    -10.3291u      7.9953u   -607.6622n      0.           0.           0.       
  199.70500n    -10.4351u      8.1011u   -686.1403n      0.           0.           0.       
  199.71000n    -10.5411u      8.2069u   -764.6184n      0.           0.           0.       
  199.71500n    -10.6472u      8.3127u   -843.0965n      0.           0.           0.       
  199.72000n    -10.7532u      8.4185u   -921.5746n      0.           0.           0.       
  199.72500n    -10.8592u      8.5243u     -1.0001u      0.           0.           0.       
  199.73000n    -10.9587u      8.6236u     -1.0686u      0.           0.           0.       
  199.73500n    -11.0558u      8.7204u     -1.1332u      0.           0.           0.       
  199.74000n    -11.1528u      8.8171u     -1.1979u      0.           0.           0.       
  199.74500n    -11.2498u      8.9139u     -1.2626u      0.           0.           0.       
  199.75000n    -11.3468u      9.0106u     -1.3272u      0.           0.           0.       
  199.75500n    -11.4439u      9.1074u     -1.3919u      0.           0.           0.       
  199.76000n    -11.5409u      9.2041u     -1.4566u      0.           0.           0.       
  199.76500n    -11.6379u      9.3009u     -1.5213u      0.           0.           0.       
  199.77000n    -11.7350u      9.3977u     -1.5859u      0.           0.           0.       
  199.77500n    -11.8320u      9.4944u     -1.6506u      0.           0.           0.       
  199.78000n    -11.9210u      9.5831u     -1.7043u      0.           0.           0.       
  199.78500n    -12.0070u      9.6687u     -1.7538u      0.           0.           0.       
  199.79000n    -12.0929u      9.7544u     -1.8033u      0.           0.           0.       
  199.79500n    -12.1789u      9.8400u     -1.8528u      0.           0.           0.       
  199.80000n    -12.2648u      9.9256u     -1.9023u      0.           0.           0.       
  199.80500n    -12.3508u     10.0112u     -1.9518u      0.           0.           0.       
  199.81000n    -12.4367u     10.0968u     -2.0013u      0.           0.           0.       
  199.81500n    -12.5226u     10.1825u     -2.0508u      0.           0.           0.       
  199.82000n    -12.6086u     10.2681u     -2.1003u      0.           0.           0.       
  199.82500n    -12.6945u     10.3537u     -2.1498u      0.           0.           0.       
  199.83000n    -12.7712u     10.4300u     -2.1876u      0.           0.           0.       
  199.83500n    -12.8442u     10.5026u     -2.2208u      0.           0.           0.       
  199.84000n    -12.9172u     10.5752u     -2.2541u      0.           0.           0.       
  199.84500n    -12.9902u     10.6479u     -2.2874u      0.           0.           0.       
  199.85000n    -13.0632u     10.7205u     -2.3207u      0.           0.           0.       
  199.85500n    -13.1362u     10.7932u     -2.3540u      0.           0.           0.       
  199.86000n    -13.2093u     10.8658u     -2.3872u      0.           0.           0.       
  199.86500n    -13.2823u     10.9385u     -2.4205u      0.           0.           0.       
  199.87000n    -13.3553u     11.0111u     -2.4538u      0.           0.           0.       
  199.87500n    -13.4283u     11.0837u     -2.4871u      0.           0.           0.       
  199.88000n    -13.4909u     11.1459u     -2.5082u      0.           0.           0.       
  199.88500n    -13.5494u     11.2040u     -2.5246u      0.           0.           0.       
  199.89000n    -13.6079u     11.2621u     -2.5410u      0.           0.           0.       
  199.89500n    -13.6665u     11.3202u     -2.5574u      0.           0.           0.       
  199.90000n    -13.7250u     11.3784u     -2.5737u      0.           0.           0.       
  199.90500n    -13.7835u     11.4365u     -2.5901u      0.           0.           0.       
  199.91000n    -13.8420u     11.4946u     -2.6065u      0.           0.           0.       
  199.91500n    -13.9006u     11.5527u     -2.6229u      0.           0.           0.       
  199.92000n    -13.9591u     11.6108u     -2.6393u      0.           0.           0.       
  199.92500n    -14.0176u     11.6689u     -2.6557u      0.           0.           0.       
  199.93000n    -14.0648u     11.7157u     -2.6597u      0.           0.           0.       
  199.93500n    -14.1076u     11.7580u     -2.6589u      0.           0.           0.       
  199.94000n    -14.1504u     11.8004u     -2.6581u      0.           0.           0.       
  199.94500n    -14.1932u     11.8428u     -2.6572u      0.           0.           0.       
  199.95000n    -14.2360u     11.8851u     -2.6564u      0.           0.           0.       
  199.95500n    -14.2788u     11.9275u     -2.6556u      0.           0.           0.       
  199.96000n    -14.3216u     11.9699u     -2.6548u      0.           0.           0.       
  199.96500n    -14.3644u     12.0122u     -2.6540u      0.           0.           0.       
  199.97000n    -14.4072u     12.0546u     -2.6532u      0.           0.           0.       
  199.97500n    -14.4500u     12.0970u     -2.6524u      0.           0.           0.       
  199.98000n    -14.4860u     12.1325u     -2.6433u      0.           0.           0.       
  199.98500n    -14.5194u     12.1655u     -2.6311u      0.           0.           0.       
  199.99000n    -14.5529u     12.1984u     -2.6188u      0.           0.           0.       
  199.99500n    -14.5863u     12.2314u     -2.6066u      0.           0.           0.       
  200.00000n    -14.6197u     12.2644u     -2.5943u      0.           0.           0.       
y

          ***** job concluded
1****** HSPICE -- J-2014.09-SP1-2 64-BIT (Jan 29 2015) RHEL64 ******            
 ******  
 ******************** stl ver 2.3 t element basic model ********************

 ****** job statistics summary tnom=  25.000 temp=  25.000 ******
  
  
 ******  Machine Information  ******
 CPU:
 model name	: Intel(R) Xeon(R) CPU           W3520  @ 2.67GHz
 cpu MHz	: 2659.971
  
 OS:
 Linux version 3.10.0-327.18.2.el7.x86_64 (builder@kbuilder.dev.centos.org) (gcc version 4.8.3 20140911 (Red Hat 4.8.3-9) (GCC) ) #1 SMP Thu May 12 11:03:55 UTC 2016


  ******  HSPICE Threads Information  ******

  Command Line Threads Count :     1
  Available CPU Count        :     4
  Actual Threads Count       :     1


  ******  Circuit Statistics  ******
  # nodes       =      13 # elements   =      16
  # resistors   =       4 # capacitors =       2 # inductors   =       2
  # mutual_inds =       0 # vccs       =       0 # vcvs        =       0
  # cccs        =       0 # ccvs       =       0 # volt_srcs   =       2
  # curr_srcs   =       0 # diodes     =       0 # bjts        =       0
  # jfets       =       0 # mosfets    =       0 # U elements  =       0
  # T elements  =       3 # W elements =       3 # B elements  =       0
  # S elements  =       0 # P elements =       0 # va device   =       0
  # vector_srcs =       0 # N elements =       0


  ******  Runtime Statistics (seconds)  ******

  analysis           time    # points   tot. iter  conv.iter
  op point           0.00           1           4
  transient          0.21       40001        8432        4216 rev=         9
  readin             0.01
  errchk             0.01
  setup              0.00
  output             0.09


           peak memory used        171.86 megabytes
           total cpu time            0.32 seconds
           total elapsed time        0.67 seconds
           job started at     14:52:56 12/03/2018
           job ended   at     14:52:57 12/03/2018


 lic: Release hspice token(s) 
 lic: total license checkout elapse time:        0.35(s)
